%nprocshared=4
%mem=6000MB
%chk=AT3_1ginp008.chk
# m062x/def2tzvp int=ultrafine scrf=(solvent=chloroform)

AT3_1ginp008

0 1
C  -0.257045  -2.511624  1.474527
C  -1.562173  -1.739388  1.243858
C  -1.372915  -0.341976  0.620849
C  -2.639466  0.546657  0.779877
C  -3.848254  0.006077  -0.009690
O  -3.661351  0.067315  -1.418217
N  -0.983732  -0.490424  -0.810575
C  0.046009  0.430514  -1.323140
C  3.932040  0.202975  0.619445
C  3.161590  1.356917  0.760200
C  1.920247  1.406274  0.134845
C  1.398077  0.362819  -0.631250
C  2.215559  -0.765177  -0.728472
C  3.461297  -0.878515  -0.129082
H  4.903299  0.142849  1.098923
H  3.502571  2.207411  1.339053
H  4.037499  -1.788221  -0.251276
F  1.175831  2.530191  0.277802
F  1.739046  -1.818203  -1.445053
H  0.408091  -1.965609  2.152189
H  -0.462150  -3.488873  1.922466
H  0.294763  -2.690239  0.545878
H  -2.232182  -2.331551  0.607088
H  -2.078942  -1.621625  2.203064
H  -2.906004  0.494178  1.845436
H  -4.733281  0.610259  0.227012
H  -4.074801  -1.022919  0.314623
H  -2.732362  -0.223828  -1.547852
H  0.181879  0.198122  -2.384115
H  -0.325720  1.452426  -1.264462
H  -0.560195  0.153254  1.176692
C  -2.390083  2.023373  0.434635
H  -2.331331  2.165668  -0.647615
H  -3.216943  2.643772  0.797053
H  -1.464111  2.396170  0.883857
H  -0.656347  -1.438234  -0.972600

