%nprocshared=4
%mem=6000MB
%chk=AT3_1ginp012.chk
# m062x/def2tzvp int=ultrafine scrf=(solvent=chloroform)

AT3_1ginp012

0 1
C  -3.450706  2.560450  -0.700058
C  -2.218259  1.950696  -0.023121
C  -1.848314  0.539457  -0.527418
C  -2.882807  -0.548888  -0.139760
C  -2.857145  -0.890796  1.354742
O  -4.002814  -1.698249  1.637014
N  -0.511537  0.157745  -0.030838
C  0.596133  0.769920  -0.779487
C  4.429849  -0.758041  0.564883
C  4.083197  0.564854  0.839110
C  2.848539  1.033077  0.402570
C  1.933539  0.251055  -0.304452
C  2.337838  -1.063606  -0.545427
C  3.553594  -1.591030  -0.133804
H  5.387550  -1.143611  0.898231
H  4.745621  1.230860  1.379758
H  3.795784  -2.623253  -0.358368
F  2.520908  2.318761  0.668736
F  1.473937  -1.867986  -1.218340
H  -3.612659  3.586715  -0.355613
H  -3.329596  2.591923  -1.789041
H  -4.364454  1.997605  -0.484932
H  -1.364569  2.614839  -0.199845
H  -2.355614  1.927388  1.063862
H  -3.876923  -0.131046  -0.340123
H  -2.875314  0.027698  1.957651
H  -1.930262  -1.425485  1.607006
H  -3.942405  -1.977429  2.559664
H  0.510850  0.590619  -1.866295
H  0.575079  1.851261  -0.634359
H  -1.847963  0.586096  -1.634898
C  -2.744732  -1.816978  -0.999023
H  -1.764435  -2.295243  -0.880058
H  -3.501117  -2.551024  -0.712095
H  -2.873223  -1.585581  -2.061427
H  -0.411048  -0.848534  -0.135455

