%nprocshared=4
%mem=6000MB
%chk=AT3_1ginp002.chk
# m062x/def2tzvp int=ultrafine scrf=(solvent=chloroform)

AT3_1ginp002

0 1
C  -3.887070  1.867474  -1.078286
C  -2.459313  1.594041  -0.591664
C  -2.031796  0.115103  -0.664590
C  -2.972596  -0.847184  0.112450
C  -3.052201  -0.520497  1.617087
O  -1.817648  -0.696726  2.301017
N  -0.649429  -0.050817  -0.146182
C  0.390071  0.694236  -0.881001
C  4.351908  -0.439561  0.474102
C  3.852261  0.823790  0.789958
C  2.578707  1.164649  0.347983
C  1.770546  0.309860  -0.404062
C  2.325476  -0.940171  -0.685239
C  3.587662  -1.340298  -0.270569
H  5.342243  -0.725833  0.811960
H  4.425833  1.539460  1.367357
H  3.950082  -2.328941  -0.526806
F  2.100504  2.392448  0.653657
F  1.566434  -1.810291  -1.400079
H  -4.643295  1.446062  -0.409624
H  -4.069306  2.944752  -1.139195
H  -4.053529  1.447050  -2.076849
H  -1.774936  2.183296  -1.211230
H  -2.331111  1.960784  0.434011
H  -3.978072  -0.693142  -0.298489
H  -3.777747  -1.193352  2.090512
H  -3.436236  0.503149  1.754230
H  -1.147301  -0.274287  1.724401
H  0.321393  0.518923  -1.967678
H  0.254368  1.762509  -0.714390
H  -2.073757  -0.179040  -1.731308
C  -2.609372  -2.324899  -0.109645
H  -1.705448  -2.603178  0.440308
H  -3.413251  -2.972386  0.255341
H  -2.456457  -2.547870  -1.171258
H  -0.414437  -1.037109  -0.237516

