%nprocshared=4
%mem=6000MB
%chk=AT3_1ginp004.chk
# m062x/def2tzvp int=ultrafine scrf=(solvent=chloroform)

AT3_1ginp004

0 1
C  1.879676  2.717636  1.110429
C  1.414298  1.816545  -0.039667
C  1.290748  0.325974  0.329872
C  2.596465  -0.288882  0.907267
C  3.788370  -0.188415  -0.064407
O  3.607476  -0.933611  -1.262743
N  0.883351  -0.468441  -0.857368
C  -0.382050  -0.108927  -1.520198
C  -3.934709  -0.236499  0.988739
C  -3.522667  0.980538  0.446188
C  -2.383026  0.998828  -0.350337
C  -1.621885  -0.134334  -0.640333
C  -2.086059  -1.320429  -0.066425
C  -3.214348  -1.406302  0.736445
H  -4.821024  -0.274965  1.613070
H  -4.063762  1.902128  0.626746
H  -3.512266  -2.365027  1.144732
F  -1.989244  2.186001  -0.876445
F  -1.377759  -2.451953  -0.317507
H  2.919304  2.529196  1.394278
H  1.805548  3.770931  0.822901
H  1.259330  2.574924  2.002789
H  0.434006  2.173339  -0.369704
H  2.085337  1.926155  -0.900535
H  2.854950  0.312880  1.787530
H  4.685126  -0.586098  0.426813
H  3.995709  0.870493  -0.287686
H  2.687480  -0.742406  -1.540721
H  -0.289650  0.876822  -1.975374
H  -0.517486  -0.824062  -2.337749
H  0.525635  0.254644  1.124612
C  2.397998  -1.737047  1.386634
H  1.497492  -1.839142  2.002327
H  2.326304  -2.433485  0.545640
H  3.253108  -2.057733  1.990478
H  0.797750  -1.439174  -0.566302

