%nprocshared=4
%mem=6000MB
%chk=AT3_2ginp008.chk
# m062x/def2tzvp int=ultrafine scrf=(solvent=chloroform)

AT3_2ginp008

0 1
C  -2.052027  3.195727  -0.207210
C  -2.553547  1.779551  -0.519431
C  -1.894874  0.683262  0.340024
C  -2.672649  -0.660661  0.348941
C  -2.915637  -1.201740  -1.060853
O  -3.362227  -2.555925  -0.944715
N  -0.512839  0.466164  -0.129315
C  0.411094  0.028955  0.925332
C  4.465061  -0.314317  -0.586594
C  3.865270  0.941985  -0.476791
C  2.567801  1.006921  0.010857
C  1.821313  -0.107080  0.399922
C  2.471441  -1.334583  0.262377
C  3.770679  -1.465858  -0.216516
H  5.478883  -0.395069  -0.964222
H  4.380149  1.852822  -0.759350
H  4.213782  -2.452042  -0.292767
F  1.971323  2.224163  0.113434
F  1.806214  -2.455834  0.623696
H  -2.531259  3.932523  -0.859392
H  -2.276475  3.470186  0.829396
H  -0.969563  3.297701  -0.344853
H  -3.637946  1.752137  -0.370598
H  -2.380001  1.549792  -1.578596
H  -2.023559  -1.397699  0.841402
H  -1.980466  -1.141912  -1.633244
H  -3.671761  -0.590937  -1.578821
H  -3.528609  -2.884651  -1.837568
H  0.418480  0.721446  1.786242
H  0.086525  -0.942157  1.304034
H  -1.890198  1.047883  1.385680
C  -3.971830  -0.583255  1.162310
H  -4.682596  0.129704  0.729126
H  -4.459997  -1.560502  1.186354
H  -3.774919  -0.273327  2.194363
H  -0.153180  1.339961  -0.502632

