%nprocshared=4
%mem=6000MB
%chk=AT3_1ginp016.chk
# m062x/def2tzvp int=ultrafine scrf=(solvent=chloroform)

AT3_1ginp016

0 1
C  -2.185501  2.958215  0.005769
C  -2.554659  1.627862  0.675738
C  -1.914369  0.400350  0.003331
C  -2.584324  -0.945687  0.388585
C  -3.949397  -1.139275  -0.288632
O  -3.902720  -1.068420  -1.713731
N  -0.476836  0.351433  0.345019
C  0.363560  -0.203568  -0.723785
C  4.565026  -0.064637  0.356644
C  3.919937  -1.298103  0.268579
C  2.572624  -1.321176  -0.075683
C  1.826580  -0.173214  -0.346585
C  2.527946  1.029445  -0.239722
C  3.869695  1.119435  0.102585
H  5.615192  -0.024645  0.625938
H  4.437364  -2.230748  0.461344
H  4.344810  2.091432  0.166058
F  1.954707  -2.522210  -0.162633
F  1.839818  2.176360  -0.481506
H  -2.539216  2.985090  -1.030578
H  -2.636916  3.802502  0.536249
H  -1.103069  3.129063  -0.014086
H  -2.258870  1.647874  1.732213
H  -3.644924  1.521661  0.663218
H  -1.929588  -1.739997  -0.002401
H  -4.649292  -0.355057  0.020630
H  -4.380266  -2.097574  0.040180
H  -3.331826  -1.786891  -2.018933
H  0.072459  -1.240968  -0.903341
H  0.232953  0.333911  -1.679936
H  -2.046252  0.514276  -1.086451
C  -2.698286  -1.157299  1.904260
H  -3.433783  -0.481808  2.355185
H  -3.009209  -2.181973  2.134150
H  -1.732392  -0.977490  2.382740
H  -0.151270  1.297228  0.523287

