%nprocshared=4
%mem=6000MB
%chk=AT3_2ginp009.chk
# m062x/def2tzvp int=ultrafine scrf=(solvent=chloroform)

AT3_2ginp009

0 1
C  -3.977728  -1.746672  -1.176480
C  -2.585118  -1.680241  -0.537187
C  -2.034721  -0.250357  -0.353204
C  -2.922606  0.660214  0.536598
C  -2.246016  2.026476  0.789440
O  -1.592540  2.571436  -0.348220
N  -0.639224  -0.192759  0.126469
C  0.363162  -0.802436  -0.757960
C  4.332849  0.450015  0.464041
C  3.482252  1.355017  -0.175190
C  2.222687  0.915157  -0.556442
C  1.754359  -0.383589  -0.343762
C  2.646096  -1.240037  0.303194
C  3.920968  -0.859593  0.708900
H  5.322770  0.769253  0.772510
H  3.778697  2.377415  -0.378601
H  4.561715  -1.580040  1.203912
F  1.396448  1.788410  -1.185920
F  2.247653  -2.511768  0.546190
H  -4.747517  -1.305315  -0.535999
H  -3.997197  -1.212072  -2.133238
H  -4.267404  -2.784097  -1.371728
H  -2.592087  -2.198165  0.430657
H  -1.887289  -2.238328  -1.172593
H  -3.840894  0.844086  -0.035543
H  -1.540180  1.927265  1.627234
H  -3.008317  2.752324  1.095009
H  -0.799183  2.021817  -0.460153
H  0.321034  -1.898143  -0.797147
H  0.169080  -0.435809  -1.771915
H  -2.015890  0.223562  -1.343936
C  -3.321390  0.046513  1.888224
H  -3.945085  -0.844066  1.773295
H  -2.444284  -0.232975  2.484184
H  -3.892783  0.770569  2.479864
H  -0.565976  -0.612047  1.051208

