%nprocshared=2
%mem=6000MB
%chk=P_ng_2ginp015.chk
# b3lyp/6-31g(d,p) Opt=(maxcycles=50) scrf=(solvent=chloroform)

P_ng_2ginp015

0 1
C  -2.537355  0.116743  -0.609594
C  -1.161507  -0.527840  -0.832643
C  -0.013687  0.387688  -0.315336
C  -0.284453  0.611809  1.181228
C  -1.682089  1.100540  1.513005
H  -2.656522  0.940735  -1.323840
H  -1.097215  -1.432834  -0.215757
H  -0.174155  -0.345079  1.706219
H  0.420245  1.307639  1.637583
O  -2.699819  0.733033  0.708736
O  -1.927539  1.749977  2.508119
C  -3.741459  -0.819818  -0.769899
C  -3.755841  -2.034856  0.162513
C  -0.998272  -0.947645  -2.300836
O  1.217055  -0.284291  -0.538809
Si  2.413799  -1.052119  0.354970
C  3.214218  0.101297  1.615781
C  1.752297  -2.592726  1.226044
C  3.673960  -1.554606  -0.947834
H  2.581333  -3.147705  1.681159
H  1.043336  -2.358780  2.027231
H  1.252854  -3.264934  0.520138
H  4.524888  -2.070894  -0.489525
H  3.230805  -2.230424  -1.686694
H  4.060015  -0.680180  -1.481594
H  4.118620  -0.365104  2.023874
H  3.505454  1.047495  1.149140
H  2.554568  0.329047  2.459066
H  0.029932  -1.266184  -2.482361
H  -1.659784  -1.782780  -2.545760
H  -1.229819  -0.128566  -2.989877
H  -3.787468  -1.141085  -1.816101
H  -4.638553  -0.215506  -0.595705
H  -2.943554  -2.734732  -0.056992
H  -3.666828  -1.726946  1.208588
H  -4.696691  -2.582506  0.054767
C  0.060019  1.732593  -1.092573
C  1.136556  2.678252  -0.632525
C  2.190586  3.039509  -1.366045
H  -0.910730  2.239910  -1.012011
H  0.215583  1.499526  -2.149876
H  1.017541  3.112178  0.359961
H  2.928767  3.744747  -0.995342
H  2.348791  2.647244  -2.367962

