%nprocshared=2
%mem=6000MB
%chk=P_ng_correct1ginp012.chk
# b3lyp/6-31g(d,p) Opt=(maxcycles=50) scrf=(solvent=chloroform)

P_ng_correct1ginp012

0 1
C  2.203326  -0.037948  0.495328
C  0.722800  0.171546  0.850456
C  -0.140716  0.253465  -0.441087
C  0.029223  -1.103326  -1.145175
C  1.470910  -1.512529  -1.382415
H  2.606784  0.895853  0.083131
H  0.377764  -0.732331  1.371795
H  -0.408287  -1.894550  -0.524426
H  -0.482738  -1.130450  -2.109641
O  2.420627  -1.040461  -0.550312
O  1.794247  -2.285472  -2.259946
C  3.072975  -0.477282  1.675286
C  4.557645  -0.621238  1.326917
C  0.545273  1.353939  1.815568
O  -1.501912  0.497183  -0.103667
Si  -2.831977  -0.428552  0.354240
C  -4.094332  0.857231  0.892455
C  -3.510137  -1.415657  -1.104256
C  -2.439857  -1.592190  1.789282
H  -3.698470  -0.765893  -1.965608
H  -2.833409  -2.213165  -1.426169
H  -4.462218  -1.883979  -0.828211
H  -3.362779  -2.078386  2.127235
H  -1.737896  -2.387514  1.516821
H  -2.021302  -1.049946  2.643670
H  -3.732725  1.438566  1.746911
H  -4.313078  1.556799  0.079070
H  -5.036138  0.380279  1.185799
H  0.921198  1.103949  2.811028
H  1.065415  2.249016  1.466689
H  -0.514500  1.598021  1.910986
H  2.679545  -1.426690  2.060143
H  2.957571  0.261419  2.474947
H  5.130590  -0.927936  2.207126
H  4.709179  -1.367885  0.543920
H  4.973432  0.328700  0.972644
C  0.259095  1.372421  -1.442731
C  0.080825  2.793013  -0.982036
C  0.974416  3.767232  -1.162875
H  -0.387402  1.215078  -2.317495
H  1.287399  1.219617  -1.789370
H  -0.873768  3.018472  -0.511179
H  0.774993  4.787783  -0.849235
H  1.936144  3.582819  -1.636840

