%nprocshared=2
%mem=6000MB
%chk=P_ng_correct1ginp010.chk
# b3lyp/6-31g(d,p) Opt=(maxcycles=50) scrf=(solvent=chloroform)

P_ng_correct1ginp010

0 1
C  2.301764  -0.601861  -0.109883
C  0.855635  -1.117194  -0.206284
C  -0.208977  -0.003176  0.000238
C  0.113786  1.127069  -0.990749
C  1.557795  1.581972  -1.046882
H  2.555063  -0.436540  0.942605
H  0.689827  -1.457929  -1.237245
H  -0.127215  0.757753  -1.995226
H  -0.501032  2.013903  -0.822941
O  2.523885  0.692989  -0.754112
O  1.876505  2.695074  -1.414136
C  3.326892  -1.549322  -0.738540
C  4.778025  -1.091890  -0.561677
C  0.644975  -2.318446  0.728521
O  -1.445888  -0.603868  -0.392041
Si  -3.078042  -0.207552  -0.271140
C  -3.751930  -0.623786  1.442393
C  -3.414720  1.607165  -0.668577
C  -3.899810  -1.309251  -1.555307
H  -2.956528  2.294151  0.050476
H  -3.054904  1.874257  -1.667572
H  -4.495643  1.789935  -0.647464
H  -4.987239  -1.174789  -1.544712
H  -3.542557  -1.077877  -2.564121
H  -3.692184  -2.366510  -1.360114
H  -4.841694  -0.504378  1.456932
H  -3.529732  -1.662338  1.710571
H  -3.338931  0.020432  2.224738
H  1.207045  -3.191234  0.387763
H  0.962494  -2.097401  1.752859
H  -0.412097  -2.591301  0.746586
H  3.089423  -1.654860  -1.804690
H  3.200082  -2.538761  -0.287220
H  5.465827  -1.804974  -1.026131
H  4.942078  -0.113000  -1.018602
H  5.041194  -1.016647  0.499357
C  -0.343992  0.518399  1.458995
C  0.812378  1.281737  2.050174
C  1.415840  0.972105  3.199605
H  -0.602530  -0.324258  2.106944
H  -1.213085  1.190424  1.458490
H  1.130216  2.179359  1.520300
H  2.217835  1.583014  3.602803
H  1.124889  0.100614  3.781719

