%nprocshared=2
%mem=6000MB
%chk=P_ng_2ginp007.chk
# b3lyp/6-31g(d,p) Opt=(maxcycles=50) scrf=(solvent=chloroform)

P_ng_2ginp007

0 1
C  2.402149  0.200303  0.328888
C  1.012579  0.323200  0.967920
C  -0.093758  -0.069507  -0.053699
C  0.171602  -1.545957  -0.398252
C  1.595865  -1.864768  -0.813347
H  2.527848  0.997633  -0.415196
H  0.941282  -0.433930  1.761359
H  -0.042369  -2.154273  0.488586
H  -0.477306  -1.909090  -1.197702
O  2.590556  -1.049639  -0.410321
O  1.877328  -2.849995  -1.464078
C  3.560740  0.266301  1.326540
C  4.942834  0.178489  0.671892
C  0.819776  1.695168  1.632356
O  -1.334370  0.055692  0.633745
Si  -2.956014  -0.296547  0.347487
C  -3.729048  -0.215017  2.060519
C  -3.761220  0.991043  -0.773013
C  -3.222128  -2.011012  -0.396572
H  -3.645712  2.003087  -0.371190
H  -3.352958  0.983692  -1.788629
H  -4.835965  0.787778  -0.850500
H  -2.861111  -2.085222  -1.427369
H  -2.734408  -2.794463  0.191982
H  -4.296449  -2.230286  -0.412558
H  -3.298132  -0.970055  2.726193
H  -3.570684  0.766236  2.519909
H  -4.809491  -0.389923  2.008633
H  1.427304  1.774324  2.537527
H  1.090181  2.517284  0.965715
H  -0.225478  1.817630  1.921269
H  3.435261  -0.542483  2.057577
H  3.480227  1.208120  1.878416
H  5.730488  0.242171  1.428644
H  5.064886  -0.762549  0.130558
H  5.095837  0.998637  -0.038612
C  -0.104822  0.751106  -1.372990
C  -0.343957  2.232607  -1.266568
C  0.352975  3.158831  -1.927490
H  -0.901548  0.312006  -1.990593
H  0.825466  0.570855  -1.924089
H  -1.171406  2.540965  -0.631407
H  0.114876  4.215379  -1.847062
H  1.183929  2.894954  -2.578145

