%nprocshared=2
%mem=6000MB
%chk=P_ng_2ginp010.chk
# b3lyp/6-31g(d,p) Opt=(maxcycles=50) scrf=(solvent=chloroform)

P_ng_2ginp010

0 1
C  2.301764  -0.601861  -0.109884
C  0.855635  -1.117193  -0.206286
C  -0.208977  -0.003176  0.000239
C  0.113786  1.127070  -0.990747
C  1.557794  1.581973  -1.046880
H  2.555064  -0.436541  0.942605
H  0.689827  -1.457927  -1.237246
H  -0.127216  0.757755  -1.995224
H  -0.501032  2.013904  -0.822938
O  2.523885  0.692990  -0.754111
O  1.876504  2.695075  -1.414134
C  3.326893  -1.549321  -0.738542
C  4.778025  -1.091888  -0.561679
C  0.644976  -2.318447  0.728518
O  -1.445888  -0.603868  -0.392041
Si  -3.078042  -0.207552  -0.271141
C  -3.751931  -0.623787  1.442392
C  -3.414720  1.607166  -0.668574
C  -3.899810  -1.309249  -1.555309
H  -4.495642  1.789936  -0.647461
H  -2.956527  2.294150  0.050480
H  -3.054903  1.874260  -1.667569
H  -4.987238  -1.174786  -1.544716
H  -3.542555  -1.077875  -2.564123
H  -3.692186  -2.366508  -1.360117
H  -4.841695  -0.504378  1.456931
H  -3.529735  -1.662341  1.710568
H  -3.338931  0.020428  2.224738
H  -0.412096  -2.591302  0.746584
H  1.207046  -3.191235  0.387760
H  0.962495  -2.097403  1.752857
H  3.089423  -1.654858  -1.804692
H  3.200082  -2.538760  -0.287223
H  4.942078  -0.112999  -1.018603
H  5.041194  -1.016646  0.499355
H  5.465827  -1.804973  -1.026133
C  -0.343992  0.518397  1.458996
C  0.812378  1.281735  2.050176
C  1.415841  0.972100  3.199606
H  -0.602530  -0.324261  2.106944
H  -1.213085  1.190422  1.458492
H  1.130216  2.179357  1.520303
H  2.217836  1.583009  3.602804
H  1.124890  0.100609  3.781719

