%mem=6000MB
%chk=IP1_1ginp013.chk
# mPw1PW91/6-311g(d) nmr=giao scrf=(solvent=chloroform)

IP1_1ginp013

0 1
C  0.989470  -0.323666  0.428025
C  -0.526724  -0.512117  0.665879
C  -1.126385  0.580347  1.590385
C  -0.619072  1.931805  1.066980
C  0.870261  2.025758  1.172702
H  1.534683  -1.147950  0.903739
H  -1.027370  -0.420377  -0.304409
H  -0.878779  2.090650  0.015033
H  -1.060472  2.759335  1.632801
O  1.553758  0.871885  1.021604
O  1.447753  3.089096  1.369059
C  1.379549  -0.295536  -1.060954
C  1.100872  -1.591265  -1.804690
C  -0.839497  -1.946147  1.122676
O  -2.565633  0.439686  1.614378
Si  -3.710360  1.066210  0.570703
C  -5.384706  0.282392  0.975734
C  -3.907069  2.923252  0.779222
C  -3.350568  0.692399  -1.232784
H  -4.027056  3.180136  1.835792
H  -3.039027  3.461130  0.389158
H  -4.790609  3.276193  0.238744
H  -4.164204  1.057313  -1.867050
H  -2.426188  1.173907  -1.562801
H  -3.255067  -0.385706  -1.392216
H  -6.161500  0.676427  0.314125
H  -5.335939  -0.802929  0.848655
H  -5.664940  0.499320  2.010540
H  -0.521164  -2.672577  0.368188
H  -0.321432  -2.197583  2.053541
H  -1.913344  -2.088745  1.279051
H  2.450493  -0.068071  -1.140825
H  0.867418  0.534894  -1.563001
H  1.492454  -1.528850  -2.825181
H  1.583675  -2.439493  -1.309490
H  0.028646  -1.794111  -1.876220
C  -0.702118  0.349719  3.083558
C  -1.111733  1.460311  4.018232
C  -0.251530  2.227779  4.699080
H  0.376188  0.173491  3.167338
H  -1.190596  -0.557059  3.464149
H  -2.181173  1.624007  4.140182
H  -0.609590  3.010907  5.360750
H  0.824078  2.104507  4.610835

