%mem=6000MB
%chk=IP1_4ginp002.chk
# mPw1PW91/6-311g(d) nmr=giao scrf=(solvent=chloroform)

IP1_4ginp002

0 1
C  0.107521  2.099216  -0.458388
C  -0.129283  1.346979  0.858276
C  -1.251680  2.075215  1.670107
C  -0.787259  3.517545  1.904012
C  -0.291673  4.224363  0.671695
H  -0.797950  2.071969  -1.074438
H  -0.462381  0.324630  0.640111
H  -1.611763  4.114206  2.312549
H  0.022506  3.560074  2.640766
O  0.397837  3.495303  -0.231300
O  -0.402767  5.440666  0.549169
C  1.238919  1.553376  -1.344214
C  1.030354  0.113059  -1.783098
C  1.172065  1.187978  1.673550
O  -1.392850  1.304855  2.885555
Si  -2.060374  1.758847  4.351234
C  -2.349790  0.199032  5.383926
C  -0.886915  2.856344  5.330282
C  -3.710310  2.635020  4.203902
H  -1.245719  2.977619  6.356808
H  0.112450  2.412931  5.365994
H  -0.809612  3.850183  4.881361
H  -4.120315  2.843791  5.196898
H  -3.608165  3.588325  3.678218
H  -4.433564  2.015553  3.665579
H  -2.770704  0.458916  6.359465
H  -3.045610  -0.471200  4.871026
H  -1.406723  -0.332291  5.541170
H  1.880796  0.536443  1.152500
H  1.672219  2.145735  1.845658
H  0.985912  0.722121  2.646006
H  2.208709  1.660328  -0.844420
H  1.313965  2.185383  -2.239102
H  1.816897  -0.183049  -2.484600
H  1.065961  -0.577145  -0.935590
H  0.065893  -0.007322  -2.286583
C  -2.618959  2.080828  0.902320
C  -3.120473  0.716013  0.505673
C  -3.430978  0.360292  -0.747342
H  -2.563461  2.729105  0.019837
H  -3.394108  2.528005  1.531844
H  -3.239325  -0.013165  1.305848
H  -3.793323  -0.640527  -0.964339
H  -3.341817  1.049902  -1.580990

