%mem=6000MB
%chk=IP1_3ginp002.chk
# mPw1PW91/6-311g(d) nmr=giao scrf=(solvent=chloroform)

IP1_3ginp002

0 1
C  -0.167646  0.573392  -0.209346
C  -1.473255  0.071041  0.421977
C  -1.776291  0.909027  1.708492
C  -1.866656  2.380548  1.287574
C  -0.723756  2.860056  0.434549
H  0.668959  0.411289  0.479096
H  -1.358886  -0.981740  0.708889
H  -2.786026  2.577590  0.725199
H  -1.901554  3.022163  2.176296
O  -0.209508  1.994015  -0.464270
O  -0.353605  4.029941  0.467813
C  0.235683  -0.098789  -1.531537
C  0.444603  -1.599910  -1.414838
C  -2.646076  0.096398  -0.581672
O  -3.017937  0.372532  2.219555
Si  -4.117427  1.072459  3.268904
C  -3.339303  1.866438  4.777476
C  -5.176766  2.359485  2.396318
C  -5.288965  -0.276999  3.893160
H  -6.014417  2.659069  3.033338
H  -4.595552  3.255206  2.161592
H  -5.581832  1.954469  1.464382
H  -6.035330  0.147877  4.570509
H  -5.807883  -0.747376  3.052996
H  -4.727911  -1.046810  4.430797
H  -4.114575  2.244583  5.451042
H  -2.737112  1.141151  5.332409
H  -2.700627  2.708789  4.498006
H  -3.590663  -0.186722  -0.107390
H  -2.777539  1.081261  -1.039751
H  -2.481934  -0.622657  -1.390564
H  1.170130  0.359200  -1.882174
H  -0.495813  0.121777  -2.317660
H  0.820735  -2.001081  -2.361422
H  1.175562  -1.834220  -0.634471
H  -0.488145  -2.121137  -1.181986
C  -0.657017  0.740109  2.793698
C  -0.388846  -0.686118  3.200547
C  0.812984  -1.273957  3.145344
H  -0.941180  1.276741  3.703863
H  0.274439  1.215893  2.464850
H  -1.239414  -1.258077  3.568659
H  0.938684  -2.306072  3.459917
H  1.696366  -0.747764  2.797151

