%mem=6000MB
%chk=IP1_3ginp006.chk
# mPw1PW91/6-311g(d) nmr=giao scrf=(solvent=chloroform)

IP1_3ginp006

0 1
C  -0.794947  0.394437  -0.633734
C  -1.137991  -0.433900  0.615177
C  -1.618629  0.479862  1.793716
C  -0.924394  1.856163  1.720702
C  0.339357  1.886321  0.909668
H  -0.370611  -0.297809  -1.372959
H  -0.185746  -0.893687  0.908255
H  -1.579260  2.621706  1.288987
H  -0.681718  2.215261  2.728044
O  0.287920  1.291688  -0.304927
O  1.337152  2.496317  1.279509
C  -1.943714  1.147083  -1.320116
C  -1.486109  1.837514  -2.600305
C  -2.087839  -1.593918  0.290987
O  -3.038154  0.657978  1.560674
Si  -4.186916  1.316132  2.587245
C  -5.661525  1.887654  1.551821
C  -4.822031  0.026777  3.800198
C  -3.572214  2.803191  3.550110
H  -5.659971  0.426771  4.378946
H  -5.168070  -0.862794  3.265693
H  -4.040133  -0.276167  4.501540
H  -3.237764  3.594712  2.873371
H  -4.374747  3.210630  4.172685
H  -2.740820  2.537347  4.208245
H  -5.348534  2.652949  0.835640
H  -6.085588  1.045847  0.996841
H  -6.440320  2.309161  2.193859
H  -2.244218  -2.229614  1.167825
H  -3.067438  -1.251860  -0.055131
H  -1.662792  -2.224975  -0.497259
H  -2.362767  1.918013  -0.668621
H  -2.753577  0.454036  -1.570002
H  -2.333534  2.334560  -3.083200
H  -0.725379  2.596608  -2.393297
H  -1.069531  1.114383  -3.308616
C  -1.338611  -0.230404  3.162570
C  0.102012  -0.545235  3.472077
C  0.836850  0.112009  4.378371
H  -1.910935  -1.165120  3.215980
H  -1.734873  0.382109  3.980888
H  0.558593  -1.382256  2.947385
H  1.869461  -0.169502  4.565493
H  0.440105  0.946759  4.948153

