%mem=6000MB
%chk=IP1_3ginp005.chk
# mPw1PW91/6-311g(d) nmr=giao scrf=(solvent=chloroform)

IP1_3ginp005

0 1
C  -0.715829  0.399908  -0.546701
C  -1.002337  -0.335537  0.773456
C  -1.590793  0.635363  1.854169
C  -1.030336  2.057771  1.653861
C  0.245751  2.120621  0.865548
H  -0.210755  -0.314335  -1.210362
H  -0.016262  -0.670700  1.121615
H  -1.741985  2.712137  1.137642
H  -0.845977  2.534791  2.624327
O  0.266496  1.429456  -0.297010
O  1.188945  2.824041  1.211692
C  -1.919471  0.964650  -1.314605
C  -1.507023  1.573547  -2.650292
C  -1.830687  -1.607629  0.554026
O  -3.016329  0.654355  1.596056
Si  -4.236969  1.285425  2.554458
C  -4.748528  0.062266  3.887974
C  -3.786224  2.914186  3.367048
C  -5.752173  1.599304  1.468781
H  -2.941517  2.798404  4.051226
H  -3.522620  3.664563  2.616183
H  -4.633471  3.298589  3.943289
H  -6.576223  1.998723  2.066956
H  -5.512259  2.319717  0.681381
H  -6.082464  0.668573  0.998546
H  -5.633124  0.424958  4.420001
H  -4.989186  -0.908340  3.444383
H  -3.949495  -0.082735  4.619794
H  -1.940300  -2.170001  1.486334
H  -2.832598  -1.396286  0.169448
H  -1.333664  -2.265925  -0.166944
H  -2.426163  1.747348  -0.744439
H  -2.651264  0.172995  -1.505377
H  -2.389794  1.934222  -3.187881
H  -0.830266  2.421999  -2.509179
H  -1.005980  0.832527  -3.281168
C  -1.262825  0.082487  3.283222
C  0.198693  -0.053844  3.624481
C  0.789855  -1.216701  3.927578
H  -1.776000  -0.877394  3.424905
H  -1.691394  0.745698  4.043591
H  0.798451  0.855197  3.649247
H  1.846315  -1.252242  4.178514
H  0.243415  -2.154874  3.934478

