%mem=6000MB
%chk=IP1_1ginp010.chk
# mPw1PW91/6-311g(d) nmr=giao scrf=(solvent=chloroform)

IP1_1ginp010

0 1
C  0.984898  -0.226836  0.768166
C  -0.522153  -0.418005  0.550034
C  -1.372222  0.773749  1.096027
C  -0.773087  2.066189  0.538690
C  0.715388  2.187242  0.651258
H  1.246334  -0.359740  1.821325
H  -0.690169  -0.435747  -0.538612
H  -1.021879  2.181159  -0.524218
H  -1.205769  2.931210  1.052913
O  1.438010  1.084792  0.382753
O  1.257409  3.270125  0.850932
C  1.827716  -1.237215  -0.035659
C  3.325792  -1.065476  0.193383
C  -1.012735  -1.779415  1.070505
O  -2.663017  0.544859  0.461417
Si  -4.117272  1.336150  0.702290
C  -5.022570  0.639998  2.198470
C  -3.955047  3.191313  0.907828
C  -5.222379  1.036235  -0.803746
H  -3.411936  3.444116  1.822505
H  -3.428694  3.633246  0.056811
H  -4.944304  3.655381  0.969141
H  -6.192723  1.522823  -0.669227
H  -4.752418  1.439290  -1.705479
H  -5.386933  -0.035630  -0.946790
H  -6.029053  1.063611  2.266454
H  -5.112292  -0.447324  2.118403
H  -4.492983  0.874511  3.125584
H  -0.601765  -2.600033  0.474495
H  -0.716096  -1.943515  2.110826
H  -2.102183  -1.866499  1.010012
H  1.630622  -1.112280  -1.107313
H  1.560280  -2.263538  0.233943
H  3.880106  -1.831275  -0.358648
H  3.675704  -0.087593  -0.151313
H  3.573053  -1.166929  1.254862
C  -1.512712  0.798600  2.655017
C  -0.277880  0.979381  3.492817
C  0.148131  0.090223  4.399608
H  -2.056187  -0.099235  2.977839
H  -2.171598  1.629468  2.935985
H  0.269280  1.916091  3.393951
H  1.032511  0.290229  4.998452
H  -0.369848  -0.847994  4.574119

