%mem=6000MB
%chk=IP1_3ginp008.chk
# mPw1PW91/6-311g(d) nmr=giao scrf=(solvent=chloroform)

IP1_3ginp008

0 1
C  -0.160031  0.629620  -0.353448
C  -1.435426  0.098561  0.314319
C  -1.691065  0.892853  1.638327
C  -1.820699  2.373991  1.260493
C  -0.718186  2.893981  0.378748
H  0.704764  0.444167  0.293595
H  -1.306043  -0.962141  0.561110
H  -2.764461  2.571321  0.740251
H  -1.831109  2.992630  2.165595
O  -0.215059  2.058424  -0.554351
O  -0.369884  4.070162  0.425340
C  0.189209  0.007890  -1.715287
C  0.408106  -1.495447  -1.662873
C  -2.648133  0.146509  -0.640943
O  -2.901929  0.323693  2.181487
Si  -3.968959  0.972785  3.293222
C  -3.156802  1.825261  4.750800
C  -5.138052  2.198225  2.469581
C  -5.035155  -0.426502  3.990585
H  -5.945218  2.474231  3.154706
H  -4.610916  3.112074  2.182845
H  -5.583353  1.758260  1.572521
H  -4.407537  -1.162412  4.501496
H  -5.763327  -0.032800  4.705533
H  -5.575575  -0.930222  3.183979
H  -3.917582  2.192989  5.446448
H  -2.510760  1.134134  5.298669
H  -2.557978  2.681824  4.430345
H  -3.572562  -0.151824  -0.137232
H  -2.799740  1.142253  -1.068233
H  -2.514751  -0.550753  -1.474246
H  1.106331  0.482994  -2.088200
H  -0.575822  0.253324  -2.461111
H  0.743970  -1.859937  -2.638980
H  1.173247  -1.754320  -0.924162
H  -0.511651  -2.029656  -1.408809
C  -0.526319  0.718506  2.676506
C  -0.202317  -0.703977  3.060343
C  -0.319083  -1.194864  4.300892
H  -0.764337  1.281868  3.584998
H  0.396346  1.176533  2.301773
H  0.172711  -1.363167  2.281052
H  -0.060728  -2.227638  4.515532
H  -0.673955  -0.588929  5.128220

