%mem=6000MB
%chk=IP1_1ginp012.chk
# mPw1PW91/6-311g(d) nmr=giao scrf=(solvent=chloroform)

IP1_1ginp012

0 1
C  0.837633  -0.153091  0.658929
C  -0.693386  -0.213501  0.783855
C  -1.210517  1.054224  1.519458
C  -0.783311  2.262107  0.673150
C  0.690112  2.303112  0.395664
H  1.302703  -0.304984  1.640294
H  -1.100065  -0.171476  -0.234956
H  -1.273125  2.269716  -0.306015
H  -1.071143  3.193636  1.176253
O  1.311230  1.127175  0.174862
O  1.286014  3.367675  0.264215
C  1.395675  -1.226458  -0.293548
C  2.916744  -1.189663  -0.392333
C  -1.180094  -1.549400  1.359379
O  -2.636047  0.988874  1.740949
Si  -3.896309  1.279662  0.683238
C  -5.486369  0.584940  1.437737
C  -4.164889  3.122929  0.427654
C  -3.677186  0.459393  -0.988543
H  -4.264131  3.632048  1.390830
H  -3.330932  3.574716  -0.115741
H  -5.078250  3.299107  -0.148487
H  -4.573103  0.598694  -1.601339
H  -2.830663  0.885452  -1.533663
H  -3.510508  -0.615692  -0.874121
H  -5.393135  -0.494059  1.591222
H  -5.686528  1.057569  2.403639
H  -6.337011  0.770774  0.775717
H  -1.097290  -2.340631  0.606099
H  -0.586277  -1.867166  2.220079
H  -2.231776  -1.514295  1.656697
H  0.984823  -1.075897  -1.299217
H  1.100690  -2.226675  0.039384
H  3.270420  -1.996658  -1.042029
H  3.269282  -0.243510  -0.814270
H  3.375707  -1.321496  0.592618
C  -0.610217  1.272033  2.957122
C  -0.895233  0.197270  3.971850
C  0.042420  -0.415372  4.706152
H  -1.048813  2.192505  3.368746
H  0.470122  1.451079  2.907489
H  -1.941341  -0.067408  4.119594
H  -0.233004  -1.173959  5.433002
H  1.096539  -0.174541  4.610125

