%mem=6000MB
%chk=IP1_2ginp018.chk
# mPw1PW91/6-311g(d) nmr=giao scrf=(solvent=chloroform)

IP1_2ginp018

0 1
C  -0.043117  -0.004387  0.994373
C  -0.579550  1.320201  0.425419
C  -1.839325  1.828644  1.199499
C  -1.385599  1.957972  2.654529
C  -0.859349  0.685861  3.237516
H  -0.589562  -0.843637  0.547339
H  0.200240  2.087069  0.554169
H  -0.600833  2.719209  2.750886
H  -2.209039  2.292140  3.291744
O  -0.201570  -0.156143  2.422112
O  -0.960722  0.442920  4.436984
C  1.452652  -0.198188  0.681912
C  1.973675  -1.557882  1.133405
C  -0.807560  1.214563  -1.094057
O  -2.050225  3.134306  0.617115
Si  -3.223117  4.280182  0.917495
C  -4.799156  3.927219  -0.045243
C  -3.631824  4.541065  2.724879
C  -2.577734  5.950756  0.275891
H  -4.308143  5.393750  2.841483
H  -4.123850  3.669314  3.161957
H  -2.726176  4.752130  3.301254
H  -3.327703  6.731714  0.430214
H  -1.663904  6.230043  0.807957
H  -2.355049  5.882802  -0.792746
H  -5.504817  4.756490  0.062696
H  -4.575213  3.806422  -1.109361
H  -5.292363  3.017789  0.303934
H  -1.182475  2.154602  -1.510738
H  0.125201  0.986318  -1.618510
H  -1.525832  0.425991  -1.339969
H  2.037199  0.576055  1.193845
H  1.639867  -0.096420  -0.391629
H  1.896456  -1.677307  2.218456
H  1.414914  -2.368876  0.655704
H  3.028172  -1.665772  0.859917
C  -3.042636  0.853119  0.971990
C  -4.103479  0.816349  2.042004
C  -4.280237  -0.209674  2.885014
H  -2.675830  -0.172282  0.850287
H  -3.538347  1.098501  0.024218
H  -4.785817  1.657442  2.115014
H  -5.069865  -0.186620  3.630913
H  -3.644578  -1.090397  2.867345

