%mem=6000MB
%chk=IP1_4ginp001.chk
# mPw1PW91/6-311g(d) nmr=giao scrf=(solvent=chloroform)

IP1_4ginp001

0 1
C  0.109734  1.830658  -0.387337
C  -0.170697  1.171629  0.970145
C  -1.271943  1.989903  1.720743
C  -0.752212  3.424606  1.870525
C  -0.222985  4.035108  0.601162
H  -0.787442  1.781219  -1.013977
H  -0.536539  0.150337  0.800731
H  -1.554819  4.076762  2.235510
H  0.054524  3.480298  2.609753
O  0.441340  3.226993  -0.251806
O  -0.286601  5.245054  0.404117
C  1.238452  1.151724  -1.180177
C  1.331199  1.674487  -2.609508
C  1.113446  1.006185  1.810751
O  -1.456059  1.302732  2.979339
Si  -2.119360  1.873197  4.405735
C  -0.913125  2.983759  5.328574
C  -3.732035  2.801473  4.183794
C  -2.479961  0.393637  5.530016
H  -4.143761  3.087054  5.156755
H  -3.587141  3.715705  3.601769
H  -4.473423  2.178151  3.675422
H  -2.899748  0.730305  6.482286
H  -3.196630  -0.280037  5.051486
H  -1.560120  -0.162869  5.731507
H  -1.277183  3.183718  6.340839
H  0.067377  2.504754  5.404698
H  -0.791722  3.943389  4.819074
H  1.794197  0.289502  1.339311
H  1.655871  1.949243  1.927126
H  0.897221  0.612211  2.808397
H  1.074755  0.068513  -1.210463
H  2.206188  1.337275  -0.700188
H  2.132395  1.158134  -3.147770
H  0.395173  1.503528  -3.150694
H  1.549619  2.746726  -2.628588
C  -2.629691  2.001802  0.936594
C  -3.183752  0.636040  0.621776
C  -3.502365  0.215944  -0.609081
H  -2.538057  2.588784  0.015054
H  -3.391803  2.520089  1.526297
H  -3.336371  -0.036519  1.464667
H  -3.904166  -0.780966  -0.766398
H  -3.381372  0.848406  -1.483076

