%mem=6000MB
%chk=IP1_2ginp014.chk
# mPw1PW91/6-311g(d) nmr=giao scrf=(solvent=chloroform)

IP1_2ginp014

0 1
C  -0.191015  0.080855  1.133783
C  -1.153315  1.089638  0.488256
C  -2.398001  1.261623  1.423800
C  -2.015215  1.149179  2.917721
C  -0.548253  1.284309  3.210869
H  -0.705186  -0.857549  1.373861
H  -0.627553  2.050004  0.453148
H  -2.556129  1.893760  3.512831
H  -2.274069  0.164071  3.326329
O  0.294913  0.641175  2.372577
O  -0.131590  1.867745  4.205730
C  1.047815  -0.282756  0.298072
C  1.954217  0.897061  -0.034692
C  -1.514139  0.752546  -0.963120
O  -3.133313  2.470423  1.132295
Si  -2.613460  4.058117  1.114884
C  -1.226315  4.449664  2.305067
C  -2.054600  4.542555  -0.619482
C  -4.071200  5.176206  1.562096
H  -2.845531  4.335650  -1.346268
H  -1.819390  5.610197  -0.660218
H  -1.161484  3.984450  -0.913160
H  -4.895864  5.025322  0.859523
H  -4.428247  4.948904  2.570729
H  -3.772158  6.227775  1.527257
H  -0.984005  5.516444  2.267407
H  -1.511266  4.211210  3.333374
H  -0.317327  3.897112  2.053765
H  -2.299419  1.415022  -1.340940
H  -0.649920  0.880185  -1.622530
H  -1.853364  -0.283125  -1.066679
H  0.748924  -0.788436  -0.626492
H  1.648198  -1.002796  0.869011
H  2.309339  1.396330  0.872056
H  2.831968  0.547498  -0.588039
H  1.444022  1.637182  -0.657173
C  -3.458914  0.130510  1.127393
C  -4.671994  0.146785  2.029066
C  -5.074493  -0.888753  2.776521
H  -2.980401  -0.855196  1.170875
H  -3.852153  0.254387  0.110376
H  -5.251530  1.069014  2.044628
H  -5.962873  -0.810136  3.396631
H  -4.539336  -1.832850  2.788234

