%mem=6000MB
%chk=IP1_2ginp015.chk
# mPw1PW91/6-311g(d) nmr=giao scrf=(solvent=chloroform)

IP1_2ginp015

0 1
C  -0.036022  0.006513  1.078939
C  -0.923950  1.111029  0.477257
C  -2.149437  1.390064  1.397230
C  -1.595955  1.750376  2.778640
C  -0.717461  0.677271  3.343189
H  -0.529676  -0.964905  0.952503
H  -0.343039  2.039119  0.445433
H  -0.982527  2.657536  2.749783
H  -2.404531  1.956398  3.488225
O  0.191904  0.144247  2.500239
O  -0.732639  0.385790  4.534047
C  1.348633  -0.136145  0.419028
C  2.230753  1.100974  0.532045
C  -1.303936  0.796450  -0.976646
O  -2.972796  2.408895  0.788646
Si  -2.861704  4.071526  0.892140
C  -3.363874  4.704577  2.587891
C  -1.148067  4.715661  0.479144
C  -4.057236  4.832967  -0.361707
H  -1.145157  5.809811  0.464695
H  -0.410533  4.387848  1.216528
H  -0.830930  4.362636  -0.506595
H  -4.014046  5.924997  -0.317078
H  -3.796997  4.514759  -1.375352
H  -5.082303  4.515499  -0.149833
H  -3.459563  5.794535  2.575209
H  -4.327349  4.280354  2.885486
H  -2.622641  4.442247  3.347209
H  -1.992157  1.542155  -1.385675
H  -0.418454  0.799379  -1.620167
H  -1.775095  -0.187293  -1.066966
H  1.245486  -0.413145  -0.635377
H  1.879924  -0.961976  0.909749
H  1.830255  1.934272  -0.052168
H  2.336899  1.424442  1.571929
H  3.231280  0.881374  0.145132
C  -3.096062  0.140419  1.482453
C  -4.248198  0.276148  2.450123
C  -5.522825  0.450123  2.078181
H  -2.544697  -0.758504  1.777319
H  -3.508268  -0.064175  0.485693
H  -4.020899  0.199769  3.512018
H  -6.312789  0.529121  2.818683
H  -5.805259  0.528928  1.032730

