%mem=6000MB
%chk=IP1_4ginp005.chk
# mPw1PW91/6-311g(d) nmr=giao scrf=(solvent=chloroform)

IP1_4ginp005

0 1
C  0.585264  1.838722  -0.073278
C  -0.612111  1.022910  0.442984
C  -1.451524  1.835812  1.487707
C  -1.388351  3.342304  1.165266
C  -1.003412  3.662117  -0.250123
H  1.056146  1.249886  -0.871546
H  -1.239670  0.863483  -0.443945
H  -2.358706  3.814891  1.361259
H  -0.672028  3.870820  1.804542
O  0.085946  3.022607  -0.733865
O  -1.591505  4.515411  -0.906071
C  1.683090  2.196801  0.938610
C  2.855681  2.911823  0.276261
C  -0.192320  -0.372019  0.923067
O  -0.790092  1.601288  2.755239
Si  -1.337090  1.968223  4.295660
C  0.149153  2.032644  5.461844
C  -2.206091  3.626113  4.407828
C  -2.493563  0.631479  4.937347
H  -2.501931  3.830853  5.441368
H  -1.546327  4.434895  4.080821
H  -3.108726  3.645943  3.791476
H  -2.736799  0.809420  5.989147
H  -3.429199  0.612745  4.372303
H  -2.022701  -0.352617  4.856052
H  -0.174048  2.255687  6.482726
H  0.672511  1.072142  5.464316
H  0.850007  2.808793  5.140988
H  0.337077  -0.905595  0.126061
H  0.471687  -0.336034  1.791510
H  -1.065889  -0.973413  1.192657
H  2.059026  1.290745  1.424788
H  1.303767  2.855479  1.723912
H  3.635063  3.121062  1.015961
H  3.295721  2.294935  -0.513660
H  2.544609  3.865138  -0.162153
C  -2.927145  1.308600  1.492037
C  -3.681402  1.431875  0.193201
C  -4.171142  0.388221  -0.488355
H  -3.513996  1.858316  2.237087
H  -2.936798  0.267048  1.838261
H  -3.857344  2.434204  -0.195463
H  -4.718908  0.539110  -1.414382
H  -4.041684  -0.633942  -0.145956

