%mem=6000MB
%chk=IP1_2ginp009.chk
# mPw1PW91/6-311g(d) nmr=giao scrf=(solvent=chloroform)

IP1_2ginp009

0 1
C  0.060381  0.249617  1.005106
C  -0.907133  1.306616  0.438014
C  -2.141218  1.485430  1.368881
C  -1.604066  1.858110  2.752054
C  -0.672435  0.823529  3.298045
H  -0.324367  -0.755586  0.793676
H  -0.374830  2.266233  0.418232
H  -1.039321  2.796605  2.733187
H  -2.421185  2.010356  3.465533
O  0.234978  0.315437  2.440607
O  -0.655518  0.532752  4.489338
C  1.464481  0.353258  0.380069
C  2.409122  -0.736474  0.875073
C  -1.283693  0.999977  -1.020275
O  -3.038357  2.456492  0.787379
Si  -3.036292  4.121053  0.916896
C  -3.560003  4.693360  2.627660
C  -1.373929  4.883844  0.497482
C  -4.293529  4.820924  -0.312247
H  -1.443867  5.975862  0.499647
H  -0.608830  4.595223  1.223047
H  -1.044281  4.567132  -0.496434
H  -4.322166  5.912591  -0.250338
H  -4.024168  4.536448  -1.333509
H  -5.292918  4.432931  -0.095174
H  -3.729693  5.774333  2.632953
H  -4.488728  4.200110  2.929285
H  -2.793385  4.471054  3.374468
H  -2.024469  1.707590  -1.404474
H  -0.411073  1.074991  -1.676176
H  -1.690924  -0.010264  -1.127735
H  1.906422  1.325508  0.630003
H  1.408424  0.286477  -0.710702
H  2.582502  -0.658994  1.952783
H  2.005352  -1.730942  0.660301
H  3.378667  -0.648795  0.374335
C  -2.997105  0.170456  1.433401
C  -4.137102  0.197822  2.424066
C  -5.427454  0.294681  2.079290
H  -2.377963  -0.695801  1.690009
H  -3.413439  -0.033848  0.438219
H  -3.884930  0.106134  3.479163
H  -6.206736  0.297253  2.835166
H  -5.734426  0.384585  1.041676

