%mem=6000MB
%chk=IP1_4ginp003.chk
# mPw1PW91/6-311g(d) nmr=giao scrf=(solvent=chloroform)

IP1_4ginp003

0 1
C  0.087284  1.843042  -0.400371
C  -0.025082  1.300788  1.029076
C  -1.186087  2.046027  1.767318
C  -0.859647  3.544982  1.741431
C  -0.394073  4.090644  0.417293
H  -0.839563  1.646411  -0.949514
H  -0.257551  0.228628  0.988005
H  -1.751086  4.120643  2.012236
H  -0.090767  3.789539  2.484150
O  0.280617  3.269946  -0.412766
O  -0.533360  5.280063  0.143839
C  1.225959  1.204732  -1.212308
C  1.163376  1.587567  -2.686915
C  1.315451  1.394496  1.790384
O  -1.157473  1.520190  3.113374
Si  -2.127145  1.890490  4.424922
C  -2.717890  3.666590  4.497661
C  -3.638365  0.768071  4.485020
C  -1.138050  1.570547  6.007169
H  -4.191165  0.922657  5.416457
H  -4.314075  0.975679  3.651039
H  -3.337394  -0.282364  4.434586
H  -1.750821  1.776611  6.889451
H  -0.810588  0.527625  6.045557
H  -0.254222  2.214236  6.037867
H  -3.273962  3.843483  5.423669
H  -1.874427  4.362597  4.476704
H  -3.384793  3.896839  3.662197
H  2.067289  0.743120  1.332724
H  1.717934  2.411873  1.796208
H  1.215978  1.062674  2.828452
H  1.178491  0.113049  -1.128695
H  2.198720  1.534331  -0.829800
H  1.977508  1.104036  -3.236134
H  0.216850  1.268414  -3.134686
H  1.261584  2.669117  -2.822518
C  -2.576226  1.799899  1.084535
C  -2.923222  0.350240  0.859512
C  -3.282681  -0.163384  -0.323815
H  -2.630605  2.343365  0.133124
H  -3.373775  2.228286  1.702347
H  -2.879539  -0.309103  1.724595
H  -3.525348  -1.218045  -0.418591
H  -3.353149  0.446285  -1.219414

