%mem=6000MB
%chk=IP1_2ginp012.chk
# mPw1PW91/6-311g(d) nmr=giao scrf=(solvent=chloroform)

IP1_2ginp012

0 1
C  -0.286161  0.180359  1.240439
C  -1.171640  1.290143  0.650878
C  -2.253405  1.704679  1.687027
C  -1.505678  2.210699  2.929030
C  -0.518326  1.221524  3.473388
H  -0.850128  -0.757787  1.305740
H  -0.529097  2.167653  0.501732
H  -0.934125  3.120902  2.720227
H  -2.221501  2.463370  3.721153
O  0.169041  0.479010  2.582562
O  -0.264086  1.166588  4.672562
C  0.969577  -0.087747  0.390743
C  1.831528  -1.211317  0.955891
C  -1.702122  0.934915  -0.743805
O  -3.165114  2.678691  1.134261
Si  -2.968215  4.323384  0.915659
C  -1.319904  4.786674  0.151370
C  -4.317155  4.938996  -0.259746
C  -3.174960  5.259198  2.533249
H  -4.232381  4.439116  -1.228985
H  -5.307227  4.728361  0.154739
H  -4.226408  6.017949  -0.414735
H  -4.116304  4.982846  3.017254
H  -2.356440  5.043458  3.224880
H  -3.187459  6.338006  2.350975
H  -0.489500  4.553811  0.823300
H  -1.164942  4.251610  -0.790105
H  -1.286823  5.859731  -0.060871
H  -0.902755  1.021423  -1.488025
H  -2.072448  -0.092104  -0.793682
H  -2.500443  1.608278  -1.067737
H  1.582189  0.820650  0.342178
H  0.690763  -0.355418  -0.633421
H  2.685683  -1.397044  0.296832
H  2.223369  -0.958147  1.945782
H  1.258302  -2.140202  1.037979
C  -3.189132  0.534296  2.165880
C  -4.025994  -0.130580  1.105867
C  -4.067127  -1.452628  0.895583
H  -3.903884  0.950271  2.890562
H  -2.617770  -0.225890  2.711146
H  -4.649228  0.522893  0.496951
H  -4.705054  -1.869596  0.121755
H  -3.479684  -2.147717  1.487319

