%mem=6000MB
%chk=IP1_4ginp004.chk
# mPw1PW91/6-311g(d) nmr=giao scrf=(solvent=chloroform)

IP1_4ginp004

0 1
C  0.093299  2.079633  -0.468939
C  -0.164461  1.313921  0.833819
C  -1.166667  2.131635  1.715921
C  -0.541243  3.509204  1.970200
C  0.065039  4.184665  0.768868
H  -0.839255  2.199292  -1.030621
H  -0.615234  0.340336  0.605281
H  -1.304354  4.194995  2.353348
H  0.239007  3.447379  2.738322
O  0.581190  3.411790  -0.207855
O  0.181409  5.406778  0.726995
C  1.092834  1.428530  -1.438313
C  0.679724  0.041524  -1.902834
C  1.148519  0.990704  1.580210
O  -1.280576  1.367897  2.937993
Si  -2.188383  1.676075  4.308554
C  -1.325837  0.870874  5.788984
C  -2.408368  3.489732  4.722227
C  -3.896834  0.894534  4.175884
H  -2.941211  3.599981  5.671921
H  -1.441027  3.990282  4.822194
H  -2.992430  4.003418  3.953615
H  -4.430647  0.981445  5.126961
H  -4.494664  1.387985  3.404965
H  -3.813895  -0.166782  3.924340
H  -1.906650  1.028741  6.702279
H  -1.217682  -0.205271  5.625863
H  -0.330965  1.303431  5.928813
H  1.769744  0.303818  0.996734
H  1.744123  1.886943  1.777800
H  0.958080  0.492825  2.535992
H  2.096196  1.396776  -0.997880
H  1.194263  2.077675  -2.318228
H  1.377337  -0.322529  -2.663917
H  0.684116  -0.678010  -1.079254
H  -0.322299  0.057728  -2.343061
C  -2.559959  2.308200  1.017800
C  -3.188087  1.029051  0.525858
C  -3.608211  0.830184  -0.730011
H  -2.478312  3.021106  0.188010
H  -3.269666  2.765889  1.716434
H  -3.305648  0.225147  1.250382
H  -4.057157  -0.115568  -1.020136
H  -3.525649  1.597311  -1.493833

