%mem=6000MB
%chk=IP1_3ginp003.chk
# mPw1PW91/6-311g(d) nmr=giao scrf=(solvent=chloroform)

IP1_3ginp003

0 1
C  -0.263187  0.331868  -0.165280
C  -1.672400  0.059624  0.373223
C  -1.891996  0.899831  1.674816
C  -1.687915  2.375810  1.308847
C  -0.479573  2.679328  0.462896
H  0.485759  0.015130  0.568221
H  -1.762710  -1.007054  0.616741
H  -2.563999  2.771473  0.781074
H  -1.577870  2.969805  2.222326
O  -0.046309  1.736323  -0.397786
O  0.035601  3.794313  0.480226
C  0.051694  -0.417377  -1.470174
C  1.524931  -0.314312  -1.849508
C  -2.759625  0.324293  -0.691339
O  -3.260832  0.631761  2.053787
Si  -4.143128  1.213771  3.350074
C  -3.966220  0.085471  4.847695
C  -3.714500  2.958094  3.881503
C  -5.975066  1.214699  2.872384
H  -4.390268  3.289037  4.676370
H  -2.693951  3.014355  4.270203
H  -3.812321  3.658490  3.047135
H  -6.297284  0.204902  2.602426
H  -6.587951  1.564893  3.707911
H  -6.142709  1.874168  2.015981
H  -4.652132  0.395571  5.641686
H  -4.198689  -0.948706  4.577550
H  -2.948656  0.119553  5.245955
H  -3.766457  0.187055  -0.285087
H  -2.695624  1.334749  -1.106025
H  -2.667511  -0.381896  -1.523095
H  -0.529735  0.000428  -2.299987
H  -0.213026  -1.475806  -1.366889
H  1.715689  -0.870907  -2.772583
H  1.821888  0.725812  -2.016071
H  2.161946  -0.733255  -1.064036
C  -0.892033  0.498662  2.814287
C  -0.845458  -0.975590  3.125679
C  0.276233  -1.706898  3.142412
H  -1.162140  1.014126  3.743067
H  0.116870  0.856121  2.573803
H  -1.791405  -1.463073  3.354929
H  0.242537  -2.766518  3.379581
H  1.249521  -1.274492  2.931470

