%mem=6000MB
%chk=IP1_4ginp007.chk
# mPw1PW91/6-311g(d) nmr=giao scrf=(solvent=chloroform)

IP1_4ginp007

0 1
C  0.251050  1.880995  -0.429405
C  -0.071511  1.202081  0.908518
C  -1.228086  1.981624  1.616035
C  -0.745365  3.424789  1.810432
C  -0.178650  4.066917  0.573469
H  -0.614188  1.804251  -1.097482
H  -0.398089  0.172023  0.716711
H  -1.574886  4.055195  2.151732
H  0.027842  3.485528  2.584250
O  0.528003  3.286779  -0.271261
O  -0.255477  5.279208  0.396243
C  1.438146  1.246601  -1.172605
C  1.581595  1.784776  -2.592003
C  1.179157  1.063606  1.803830
O  -1.449760  1.271127  2.853218
Si  -2.187679  1.799484  4.257585
C  -1.007047  2.845274  5.286838
C  -3.761640  2.780757  3.991982
C  -2.643377  0.288782  5.302117
H  -4.200231  3.060963  4.954821
H  -3.569974  3.701002  3.433960
H  -4.503621  2.191181  3.446995
H  -1.749168  -0.297729  5.531893
H  -3.107655  0.599695  6.242418
H  -3.347560  -0.348537  4.759487
H  -0.824129  3.813081  4.812390
H  -1.428066  3.029545  6.279751
H  -0.048860  2.331944  5.409105
H  1.896423  0.365397  1.359447
H  1.693881  2.018512  1.946434
H  0.930008  0.660075  2.789883
H  1.312247  0.158892  -1.218495
H  2.375277  1.459574  -0.645541
H  2.423981  1.299416  -3.095076
H  0.678506  1.588457  -3.178612
H  1.765517  2.863638  -2.592791
C  -2.553460  1.982827  0.774719
C  -3.095523  0.623042  0.410259
C  -4.286993  0.156259  0.805389
H  -2.418401  2.543877  -0.157227
H  -3.326808  2.534806  1.319468
H  -2.486558  -0.005970  -0.234600
H  -4.625116  -0.829962  0.501278
H  -4.951023  0.736256  1.438019

