%mem=6000MB
%chk=IP1_1ginp015.chk
# mPw1PW91/6-311g(d) nmr=giao scrf=(solvent=chloroform)

IP1_1ginp015

0 1
C  1.045613  -0.398130  0.534134
C  -0.486818  -0.471176  0.663406
C  -1.013075  0.666749  1.587643
C  -0.523151  1.988319  0.989406
C  0.966813  2.038135  0.849589
H  1.505474  -0.750746  1.465543
H  -0.923515  -0.293806  -0.325360
H  -0.925685  2.156762  -0.015412
H  -0.851408  2.842044  1.592027
O  1.555586  0.939727  0.331448
O  1.605665  3.060809  1.071721
C  1.638905  -1.273815  -0.585815
C  1.167064  -0.908641  -1.987736
C  -0.948516  -1.872617  1.087646
O  -2.447698  0.549939  1.708149
Si  -3.652907  1.160809  0.727483
C  -3.417801  0.716711  -1.080701
C  -5.305381  0.415731  1.271001
C  -3.809805  3.025890  0.886725
H  -5.279217  -0.673753  1.177201
H  -5.511403  0.670183  2.314671
H  -6.120535  0.799698  0.650937
H  -3.870487  3.316893  1.939553
H  -2.955507  3.537966  0.436432
H  -4.715127  3.376988  0.382297
H  -2.521981  1.187950  -1.493732
H  -3.325256  -0.366557  -1.202555
H  -4.276186  1.052301  -1.670562
H  -0.720596  -2.609646  0.311085
H  -0.454725  -2.198861  2.008317
H  -2.029875  -1.910902  1.249590
H  1.431161  -2.332320  -0.397273
H  2.730678  -1.160593  -0.568888
H  1.718436  -1.494532  -2.730501
H  0.104013  -1.127030  -2.123074
H  1.334936  0.150673  -2.204370
C  -0.494956  0.492858  3.059475
C  -0.854626  1.618315  4.000859
C  -1.778645  1.522296  4.965357
H  0.595364  0.396494  3.089952
H  -0.898367  -0.441046  3.472255
H  -0.304152  2.551811  3.897499
H  -1.987169  2.361487  5.621789
H  -2.353656  0.613435  5.114622

