%mem=6000MB
%chk=IP1_1ginp004.chk
# mPw1PW91/6-311g(d) nmr=giao scrf=(solvent=chloroform)

IP1_1ginp004

0 1
C  1.190390  -0.114418  1.004152
C  -0.306952  -0.424755  0.883349
C  -1.153299  0.842471  1.228558
C  -0.727930  1.894361  0.193134
C  0.748592  2.154231  0.149640
H  1.449164  0.029691  2.060263
H  -0.535189  -0.646425  -0.169627
H  -1.032509  1.595155  -0.817435
H  -1.220573  2.851396  0.401512
O  1.574797  1.107226  0.334508
O  1.189928  3.262443  -0.140197
C  2.127624  -1.219782  0.483463
C  1.960762  -1.539428  -0.996763
C  -0.688718  -1.699770  1.648200
O  -2.526000  0.425553  1.050902
Si  -3.893129  1.358168  0.808022
C  -4.011807  2.854845  1.928923
C  -4.015015  1.938163  -0.977961
C  -5.415576  0.286715  1.148819
H  -3.243952  2.679069  -1.205443
H  -3.896999  1.094020  -1.663602
H  -4.990395  2.397768  -1.163855
H  -5.407973  -0.063633  2.185002
H  -6.331995  0.859779  0.981022
H  -5.422707  -0.584210  0.487127
H  -3.949955  2.560656  2.980637
H  -3.213335  3.571898  1.719480
H  -4.967104  3.367436  1.779170
H  -0.297897  -2.584045  1.132790
H  -0.273139  -1.712158  2.658828
H  -1.772473  -1.832401  1.715071
H  2.002141  -2.136477  1.069649
H  3.164407  -0.891421  0.632564
H  2.068601  -0.643014  -1.614926
H  2.725061  -2.257651  -1.311267
H  0.984810  -1.987954  -1.202747
C  -0.922218  1.407747  2.669645
C  -1.335328  0.518144  3.810158
C  -0.549851  0.219996  4.853237
H  -1.493219  2.335069  2.784862
H  0.125221  1.706179  2.796535
H  -2.345165  0.112438  3.779793
H  -0.910554  -0.422107  5.651635
H  0.460486  0.607108  4.942245

