%mem=6000MB
%chk=IP1_1ginp002.chk
# mPw1PW91/6-311g(d) nmr=giao scrf=(solvent=chloroform)

IP1_1ginp002

0 1
C  0.980612  -0.412911  0.595280
C  -0.556095  -0.488637  0.635792
C  -1.131314  0.593196  1.595931
C  -0.611125  1.950386  1.110319
C  0.884282  2.006473  1.036415
H  1.389589  -0.818577  1.528777
H  -0.936433  -0.251372  -0.363196
H  -0.969745  2.187092  0.102737
H  -0.964186  2.762350  1.755539
O  1.499056  0.933038  0.495524
O  1.512450  3.019778  1.323658
C  1.634934  -1.225605  -0.538178
C  1.239350  -0.781991  -1.941072
C  -1.040653  -1.910831  0.951009
O  -2.571708  0.479005  1.639913
Si  -3.719290  1.123897  0.610374
C  -3.906842  2.977746  0.852482
C  -3.367901  0.774148  -1.198873
C  -5.394025  0.339286  1.011581
H  -2.454265  1.273836  -1.531738
H  -3.255894  -0.300618  -1.369744
H  -4.192160  1.132039  -1.823352
H  -6.172862  0.746081  0.360177
H  -5.349424  -0.744071  0.867328
H  -5.668382  0.540847  2.051059
H  -4.049114  3.213173  1.911322
H  -3.026005  3.517448  0.495186
H  -4.775306  3.348753  0.299850
H  -0.770952  -2.601800  0.146005
H  -0.597978  -2.292281  1.876446
H  -2.129211  -1.954814  1.051397
H  1.418707  -2.292645  -0.420573
H  2.724032  -1.115355  -0.455772
H  1.831107  -1.326344  -2.684363
H  0.185538  -0.990875  -2.145891
H  1.417139  0.287508  -2.088782
C  -0.684026  0.336574  3.077822
C  -1.164613  1.378740  4.057717
C  -0.356823  2.179616  4.764094
H  0.405049  0.251968  3.153738
H  -1.097448  -0.619578  3.422904
H  -2.242143  1.461060  4.190906
H  -0.766435  2.908406  5.457341
H  0.724161  2.138473  4.667123

