%mem=6000MB
%chk=IP1_2ginp003.chk
# mPw1PW91/6-311g(d) nmr=giao scrf=(solvent=chloroform)

IP1_2ginp003

0 1
C  -0.257893  -0.071691  1.246784
C  -0.984405  1.046504  0.485751
C  -1.929654  1.837795  1.444983
C  -1.002040  2.428461  2.516041
C  -0.157235  1.411714  3.221742
H  -0.961724  -0.876440  1.491225
H  -0.227988  1.770818  0.144335
H  -0.320883  3.169655  2.080020
H  -1.589908  2.949638  3.280722
O  0.304367  0.372271  2.502861
O  0.178803  1.567735  4.392089
C  0.894733  -0.690188  0.434243
C  1.595363  -1.822747  1.176906
C  -1.645588  0.530894  -0.801601
O  -2.522918  2.861982  0.615233
Si  -3.257637  4.295795  1.064984
C  -1.981290  5.614818  1.480066
C  -4.262882  4.938667  -0.404042
C  -4.438216  4.134462  2.510892
H  -3.612628  5.095598  -1.269456
H  -5.037938  4.216898  -0.677563
H  -4.743720  5.888297  -0.152287
H  -5.202250  3.378324  2.308480
H  -3.908579  3.859054  3.426982
H  -4.947417  5.085729  2.694136
H  -1.454582  5.375758  2.407782
H  -1.244503  5.701079  0.676129
H  -2.465821  6.587500  1.607622
H  -0.886281  0.320107  -1.562577
H  -2.196787  -0.398139  -0.635377
H  -2.325892  1.265897  -1.241494
H  1.640385  0.081387  0.207295
H  0.526106  -1.085735  -0.517454
H  2.373846  -2.261327  0.544402
H  2.073361  -1.466495  2.094578
H  0.886861  -2.614330  1.440668
C  -3.031161  0.963843  2.132901
C  -4.061920  0.351339  1.224350
C  -4.399300  -0.944772  1.236655
H  -3.583824  1.583136  2.847231
H  -2.566349  0.179323  2.741941
H  -4.568739  1.019693  0.530318
H  -5.159677  -1.324921  0.560529
H  -3.936516  -1.653633  1.916301

