%mem=6000MB
%chk=IP1_2ginp007.chk
# mPw1PW91/6-311g(d) nmr=giao scrf=(solvent=chloroform)

IP1_2ginp007

0 1
C  -0.276497  -0.078006  1.316067
C  -0.802536  1.162373  0.584911
C  -1.850415  1.910873  1.470504
C  -1.077026  2.331841  2.729555
C  -0.328747  1.226145  3.414124
H  -1.066599  -0.833519  1.398387
H  0.039279  1.862191  0.460001
H  -0.355043  3.124140  2.495085
H  -1.767594  2.741652  3.472885
O  0.150699  0.218444  2.664059
O  -0.090748  1.278183  4.618009
C  0.920873  -0.729800  0.600354
C  1.429814  -1.973362  1.321229
C  -1.262568  0.846121  -0.846376
O  -2.205174  3.078088  0.694929
Si  -3.262825  4.322750  1.054628
C  -2.764629  5.837235  0.029840
C  -5.029021  3.893695  0.565190
C  -3.271177  4.860868  2.849370
H  -5.067711  3.552744  -0.473426
H  -5.433734  3.105846  1.205942
H  -5.674524  4.771934  0.661404
H  -3.662181  4.071479  3.497330
H  -2.264184  5.125419  3.184577
H  -3.908771  5.741117  2.978289
H  -1.750376  6.153103  0.290359
H  -2.792371  5.598207  -1.037142
H  -3.449438  6.668686  0.219751
H  -0.395411  0.691040  -1.498005
H  -1.862427  -0.066210  -0.894500
H  -1.837472  1.665036  -1.288295
H  1.746815  -0.011211  0.535002
H  0.648840  -1.017269  -0.420287
H  2.247612  -2.428287  0.753168
H  1.810713  -1.732278  2.318385
H  0.634158  -2.717823  1.425477
C  -3.089204  1.052188  1.894058
C  -3.901392  0.441024  0.785580
C  -4.248300  -0.851777  0.734808
H  -3.776704  1.677091  2.477016
H  -2.770607  0.259550  2.582737
H  -4.231841  1.100965  -0.013796
H  -4.843462  -1.233210  -0.090018
H  -3.958140  -1.557080  1.507619

