%mem=6000MB
%chk=IP1_2ginp005.chk
# mPw1PW91/6-311g(d) nmr=giao scrf=(solvent=chloroform)

IP1_2ginp005

0 1
C  -0.039298  0.261544  1.137111
C  -1.044694  1.127662  0.359345
C  -2.347095  1.290385  1.219244
C  -2.039440  1.196844  2.730733
C  -0.632116  1.585419  3.074721
H  -0.483721  -0.694534  1.440694
H  -0.588513  2.118315  0.258464
H  -2.733828  1.796151  3.325305
H  -2.133371  0.165103  3.096079
O  0.331305  0.991611  2.330057
O  -0.359184  2.330502  4.008026
C  1.256683  -0.028594  0.365209
C  2.257908  -0.830807  1.188734
C  -1.296557  0.663285  -1.078658
O  -3.050743  2.477979  0.797263
Si  -2.786296  4.077418  1.208413
C  -3.366225  4.474535  2.951020
C  -1.009760  4.641094  1.013938
C  -3.824762  5.156355  0.039558
H  -0.922369  5.707416  1.244397
H  -0.340874  4.099349  1.686860
H  -0.664274  4.491399  -0.013197
H  -4.884854  4.905424  0.136910
H  -3.690943  6.214939  0.279804
H  -3.519220  4.990304  -0.997422
H  -4.357825  4.049877  3.132769
H  -2.675725  4.078619  3.700020
H  -3.426929  5.557728  3.094218
H  -2.092658  1.250555  -1.548138
H  -0.401748  0.800992  -1.694805
H  -1.568388  -0.396034  -1.122486
H  1.733265  0.914307  0.071009
H  1.037795  -0.592652  -0.547509
H  3.145269  -1.054161  0.587824
H  2.585062  -0.276575  2.073823
H  1.822710  -1.780096  1.516835
C  -3.364140  0.131798  0.893430
C  -4.619884  0.146763  1.733555
C  -5.024574  -0.866909  2.509137
H  -2.864646  -0.840371  0.990265
H  -3.706179  0.218679  -0.145550
H  -5.229486  1.047646  1.677004
H  -5.945066  -0.791734  3.081015
H  -4.460074  -1.790246  2.590977

