%mem=6000MB
%chk=IP1_3ginp001.chk
# mPw1PW91/6-311g(d) nmr=giao scrf=(solvent=chloroform)

IP1_3ginp001

0 1
C  -0.284221  0.322643  -0.182591
C  -1.598420  -0.081655  0.499420
C  -1.833593  0.834034  1.745180
C  -1.862411  2.283903  1.247208
C  -0.712128  2.662759  0.354239
H  0.555853  0.136977  0.495532
H  -1.520135  -1.125209  0.831751
H  -2.780812  2.494264  0.688038
H  -1.852602  2.972553  2.100652
O  -0.252031  1.727646  -0.503550
O  -0.286941  3.813818  0.320688
C  0.008173  -0.463245  -1.471169
C  1.419406  -0.210600  -1.990265
C  -2.791215  -0.058378  -0.480230
O  -3.088048  0.386191  2.307268
Si  -4.130536  1.193433  3.337598
C  -3.283621  2.025771  4.787295
C  -5.144206  2.483737  2.416961
C  -5.352716  -0.062013  4.054028
H  -5.952549  2.857857  3.052428
H  -4.525177  3.335764  2.123580
H  -5.588234  2.050751  1.515858
H  -4.818508  -0.829395  4.621647
H  -6.063465  0.434049  4.721220
H  -5.911087  -0.549524  3.249690
H  -4.025509  2.475654  5.454330
H  -2.704996  1.301778  5.368376
H  -2.611608  2.820385  4.451807
H  -3.737557  -0.266949  0.027904
H  -2.885303  0.902796  -0.994447
H  -2.677477  -0.832988  -1.245968
H  -0.689731  -0.169145  -2.263488
H  -0.114265  -1.537133  -1.289976
H  1.597633  -0.797762  -2.896762
H  1.570302  0.844737  -2.237781
H  2.168240  -0.500857  -1.246455
C  -0.700569  0.668509  2.816333
C  -0.494148  -0.744847  3.297182
C  0.677443  -1.392036  3.258148
H  -0.938099  1.267983  3.700299
H  0.245840  1.077756  2.443493
H  -1.364651  -1.254134  3.708211
H  0.759281  -2.410274  3.627629
H  1.579000  -0.928641  2.869591

