%mem=6000MB
%chk=IP1_1ginp005.chk
# mPw1PW91/6-311g(d) nmr=giao scrf=(solvent=chloroform)

IP1_1ginp005

0 1
C  0.865148  -0.261757  0.402712
C  -0.603559  -0.557532  0.751016
C  -1.099739  0.498903  1.799780
C  -0.336248  1.834927  1.657921
C  0.206900  2.064125  0.278669
H  1.489706  -0.214970  1.303544
H  -1.177755  -0.405555  -0.169242
H  -0.953330  2.689194  1.948265
H  0.549882  1.861352  2.306663
O  0.905601  1.029873  -0.248069
O  0.093917  3.132822  -0.309397
C  1.488521  -1.275634  -0.568391
C  2.921256  -0.916022  -0.945401
C  -0.876563  -2.011682  1.148324
O  -2.538827  0.592060  1.737185
Si  -3.507348  1.446807  0.674849
C  -5.296955  0.858403  0.919437
C  -3.503590  3.292274  1.028315
C  -3.100021  1.171718  -1.133477
H  -3.619231  3.479105  2.099930
H  -2.574721  3.759867  0.692012
H  -4.330741  3.781576  0.504960
H  -2.095126  1.524887  -1.376743
H  -3.166291  0.110353  -1.390160
H  -3.806909  1.714457  -1.768721
H  -5.613326  1.032358  1.951855
H  -5.970429  1.400662  0.249650
H  -5.374485  -0.211249  0.704751
H  -0.739509  -2.681495  0.292840
H  -0.204574  -2.349271  1.943580
H  -1.911040  -2.140507  1.483488
H  0.894146  -1.322802  -1.488849
H  1.495192  -2.275561  -0.122041
H  3.341909  -1.685803  -1.600289
H  2.968368  0.038266  -1.478974
H  3.553887  -0.845557  -0.054890
C  -0.833679  -0.019374  3.263835
C  -1.197326  0.964188  4.351629
C  -0.341218  1.427807  5.270853
H  0.217446  -0.316300  3.368498
H  -1.443459  -0.910434  3.459284
H  -2.235368  1.292937  4.379806
H  -0.673403  2.128198  6.031843
H  0.700007  1.122474  5.293854

