%mem=6000MB
%chk=IP1_2ginp006.chk
# mPw1PW91/6-311g(d) nmr=giao scrf=(solvent=chloroform)

IP1_2ginp006

0 1
C  -0.106604  0.054183  1.311380
C  -1.034171  0.943107  0.466974
C  -2.356841  1.210887  1.269733
C  -2.115623  1.148560  2.794437
C  -0.703013  1.463156  3.186789
H  -0.620381  -0.866121  1.616824
H  -0.528095  1.905401  0.344457
H  -2.795756  1.806844  3.341331
H  -2.286769  0.136576  3.186189
O  0.251150  0.781082  2.509678
O  -0.423490  2.224741  4.104683
C  1.210814  -0.362984  0.637426
C  2.112665  0.799803  0.238986
C  -1.261496  0.424742  -0.957261
O  -2.968397  2.425413  0.784154
Si  -2.618718  4.018182  1.156756
C  -3.240814  4.508039  2.860782
C  -0.803236  4.463154  1.019253
C  -3.538987  5.120639  -0.086754
H  -0.428564  4.262253  0.011242
H  -0.656938  5.528158  1.224539
H  -0.196625  3.900297  1.732652
H  -3.203763  4.901567  -1.104541
H  -4.615963  4.939864  -0.026075
H  -3.347503  6.176156  0.126422
H  -3.236976  5.597001  2.968675
H  -4.264282  4.153290  3.013438
H  -2.607927  4.093800  3.649683
H  -1.997375  1.039675  -1.485865
H  -0.338682  0.466888  -1.544269
H  -1.603890  -0.614874  -0.961708
H  1.009101  -0.988456  -0.238899
H  1.775729  -0.985377  1.343360
H  2.370185  1.420191  1.102917
H  3.046150  0.417730  -0.186997
H  1.642250  1.437725  -0.514235
C  -3.432413  0.107560  0.939496
C  -4.716031  0.228441  1.727482
C  -5.213667  -0.731823  2.516842
H  -2.999512  -0.889895  1.086815
H  -3.728798  0.180898  -0.114435
H  -5.264628  1.163116  1.618758
H  -6.148771  -0.580624  3.048551
H  -4.712421  -1.685245  2.649689

