%mem=6000MB
%chk=IP1_4ginp008.chk
# mPw1PW91/6-311g(d) nmr=giao scrf=(solvent=chloroform)

IP1_4ginp008

0 1
C  0.244517  2.160302  -0.496952
C  -0.036613  1.384275  0.796616
C  -1.209704  2.077099  1.566747
C  -0.774866  3.520360  1.851784
C  -0.239115  4.260440  0.656521
H  -0.630101  2.116535  -1.155779
H  -0.335872  0.358126  0.551270
H  -1.622707  4.098423  2.237841
H  0.001690  3.557418  2.623707
O  0.487163  3.560355  -0.240344
O  -0.356483  5.478512  0.559523
C  1.430780  1.655354  -1.334169
C  1.280782  0.216660  -1.801444
C  1.230585  1.238698  1.667537
O  -1.391299  1.279293  2.756573
Si  -2.129162  1.687352  4.200481
C  -0.972094  2.702646  5.285485
C  -3.738750  2.628881  4.017181
C  -2.520396  0.095611  5.146199
H  -4.174339  2.829393  5.001047
H  -3.585439  3.590115  3.519679
H  -4.467179  2.051268  3.441904
H  -1.604024  -0.473519  5.327182
H  -2.983274  0.327034  6.109825
H  -3.209222  -0.528227  4.569275
H  -0.828819  3.705987  4.875618
H  -1.386363  2.804884  6.292967
H  0.004720  2.216384  5.362685
H  1.972132  0.603695  1.172323
H  1.707393  2.202516  1.869473
H  1.010063  0.760695  2.626796
H  2.372361  1.779382  -0.786622
H  1.532571  2.301682  -2.216098
H  2.108155  -0.049868  -2.466922
H  1.292017  -0.484562  -0.962372
H  0.345651  0.079671  -2.353631
C  -2.545337  2.087142  0.741625
C  -3.040982  0.736932  0.286615
C  -4.205641  0.195016  0.665382
H  -2.443817  2.717742  -0.149197
H  -3.331637  2.569121  1.332234
H  -2.420356  0.181880  -0.412823
H  -4.510950  -0.779079  0.294758
H  -4.879363  0.699952  1.350001

