%mem=6000MB
%chk=IP1_2ginp010.chk
# mPw1PW91/6-311g(d) nmr=giao scrf=(solvent=chloroform)

IP1_2ginp010

0 1
C  -0.290960  -0.016840  1.228149
C  -0.854783  1.216434  0.509492
C  -1.936722  1.968486  1.349031
C  -1.356913  2.212234  2.743448
C  -0.702887  1.027694  3.385319
H  -1.023373  -0.828328  1.242734
H  -0.021103  1.925840  0.385334
H  -0.607009  3.013348  2.716093
H  -2.146567  2.550860  3.422917
O  0.065680  0.254901  2.596793
O  -0.758316  0.843157  4.597410
C  0.976647  -0.567014  0.544173
C  1.529616  -1.805352  1.241974
C  -1.336925  0.885629  -0.912868
O  -2.032203  3.244104  0.652647
Si  -3.106913  4.503838  0.891578
C  -4.727620  4.186302  -0.011322
C  -3.482109  4.859531  2.692384
C  -2.361200  6.079051  0.155397
H  -4.115350  5.747735  2.780969
H  -4.011904  4.025450  3.160508
H  -2.561449  5.045921  3.252944
H  -3.049840  6.920427  0.274947
H  -1.420884  6.324254  0.657514
H  -2.160469  5.941896  -0.911060
H  -5.369114  5.071479  0.033657
H  -4.539003  3.951955  -1.063099
H  -5.272080  3.350293  0.435502
H  -1.834303  1.741370  -1.380267
H  -0.496364  0.622011  -1.562100
H  -2.035565  0.043557  -0.915632
H  1.759061  0.201573  0.543971
H  0.769462  -0.830537  -0.497545
H  1.850071  -1.581469  2.264077
H  0.778034  -2.600175  1.281323
H  2.398595  -2.187021  0.696397
C  -3.327007  1.250122  1.392242
C  -3.424243  -0.106093  2.033045
C  -3.832016  -1.209301  1.391946
H  -3.741161  1.214703  0.375920
H  -4.031457  1.879655  1.949784
H  -3.202945  -0.181229  3.096984
H  -3.911515  -2.157443  1.916782
H  -4.101794  -1.198012  0.340232

