%mem=6000MB
%chk=IP1_2ginp008.chk
# mPw1PW91/6-311g(d) nmr=giao scrf=(solvent=chloroform)

IP1_2ginp008

0 1
C  -0.121728  0.303809  0.997425
C  -1.164544  1.266839  0.407458
C  -2.386011  1.334360  1.384456
C  -1.946979  1.206878  2.862041
C  -0.483564  1.438388  3.111530
H  -0.560818  -0.670991  1.240827
H  -0.693123  2.256619  0.384602
H  -2.518303  1.894549  3.495923
H  -2.122228  0.194581  3.247952
O  0.373453  0.891137  2.220329
O  -0.074684  2.016926  4.112455
C  1.093209  0.073610  0.085206
C  2.139220  -0.832374  0.725085
C  -1.547563  0.958941  -1.044087
O  -3.207143  2.499038  1.150429
Si  -2.793483  4.117480  1.163007
C  -2.319877  4.684150  -0.571648
C  -4.308489  5.123539  1.681610
C  -1.401656  4.570252  2.325365
H  -4.080755  6.193297  1.668043
H  -5.141600  4.936154  0.998050
H  -4.619805  4.846434  2.692934
H  -1.638940  4.284170  3.353634
H  -0.465124  4.088882  2.032376
H  -1.233629  5.651814  2.312895
H  -2.157504  5.765908  -0.588625
H  -1.400738  4.195416  -0.905771
H  -3.116487  4.443840  -1.281769
H  -2.389446  1.576392  -1.373068
H  -0.713837  1.177561  -1.719754
H  -1.814853  -0.093989  -1.179029
H  1.569374  1.033432  -0.148906
H  0.779377  -0.383818  -0.858938
H  2.558617  -0.383832  1.630898
H  1.707219  -1.803083  0.988319
H  2.963654  -1.006304  0.026192
C  -3.379383  0.143736  1.087630
C  -4.560597  0.054881  2.026455
C  -4.869053  -1.024707  2.756091
H  -2.836150  -0.808841  1.087281
H  -3.812373  0.268686  0.087004
H  -5.198922  0.935543  2.086385
H  -5.739858  -1.022168  3.405426
H  -4.272647  -1.930867  2.724189

