%mem=6000MB
%chk=IP1_1ginp018.chk
# mPw1PW91/6-311g(d) nmr=giao scrf=(solvent=chloroform)

IP1_1ginp018

0 1
C  1.020725  -0.479583  0.542179
C  -0.490872  -0.505817  0.258653
C  -1.265352  0.574266  1.082276
C  -0.620526  1.906230  0.695274
C  0.849765  1.963915  0.959847
H  1.237336  -1.081552  1.432962
H  -0.642590  -0.260426  -0.804127
H  -0.776687  2.118778  -0.370119
H  -1.082002  2.735511  1.238502
O  1.559888  0.831281  0.820593
O  1.409278  3.023405  1.229008
C  1.833483  -1.063915  -0.628504
C  3.323241  -1.156309  -0.318402
C  -1.060494  -1.925203  0.439840
O  -2.599029  0.479331  0.533918
Si  -3.993345  1.306807  0.921346
C  -4.869046  0.536390  2.396120
C  -3.772018  3.142963  1.206445
C  -5.191353  1.141374  -0.547123
H  -4.745883  3.628504  1.324397
H  -3.190934  3.348804  2.108136
H  -3.267109  3.609958  0.355600
H  -4.751100  1.587471  -1.443424
H  -5.399420  0.086217  -0.745981
H  -6.133889  1.650607  -0.326959
H  -4.290055  0.648169  3.315094
H  -5.842788  1.010884  2.550977
H  -5.033609  -0.531615  2.224734
H  -0.585748  -2.632029  -0.247330
H  -0.901287  -2.296556  1.457181
H  -2.134815  -1.956766  0.233209
H  1.710119  -0.427915  -1.513663
H  1.472837  -2.064009  -0.888588
H  3.855051  -1.608832  -1.161493
H  3.758451  -0.168028  -0.141057
H  3.500657  -1.776006  0.566256
C  -1.203758  0.235046  2.609529
C  -1.345656  1.387016  3.571040
C  -0.338661  1.874711  4.307753
H  -0.256333  -0.262766  2.844846
H  -1.984489  -0.496476  2.853552
H  -2.328939  1.828930  3.698388
H  -0.501464  2.701003  4.994153
H  0.670982  1.479065  4.243466

