%mem=6000MB
%chk=IP1_1ginp017.chk
# mPw1PW91/6-311g(d) nmr=giao scrf=(solvent=chloroform)

IP1_1ginp017

0 1
C  0.831383  -0.410446  0.509313
C  0.245822  -0.151426  1.913021
C  -0.811740  0.998707  1.876157
C  -0.159702  2.223500  1.224680
C  0.582697  1.947041  -0.053488
H  1.729479  -1.029166  0.635110
H  -0.240965  -1.079594  2.241893
H  -0.906969  2.994077  1.010288
H  0.567319  2.684147  1.904886
O  1.287854  0.799087  -0.126955
O  0.672078  2.799850  -0.932687
C  -0.087368  -1.173022  -0.459133
C  0.676982  -1.698799  -1.670333
C  1.420177  0.107171  2.878810
O  -1.930256  0.471566  1.130721
Si  -3.259946  1.258352  0.481356
C  -3.998454  2.594123  1.566814
C  -2.855395  2.016081  -1.192587
C  -4.618544  -0.028981  0.187840
H  -2.376006  1.280123  -1.844258
H  -3.769481  2.363455  -1.683549
H  -2.185374  2.872756  -1.085255
H  -5.498817  0.439999  -0.261010
H  -4.258410  -0.812515  -0.485069
H  -4.912845  -0.490756  1.134700
H  -4.892439  3.014426  1.095523
H  -4.293153  2.190519  2.539788
H  -3.291452  3.413060  1.725883
H  2.129445  -0.728128  2.849425
H  1.974670  1.015020  2.623730
H  1.088670  0.187980  3.916380
H  -0.874864  -0.522430  -0.845965
H  -0.559542  -2.018294  0.053370
H  -0.001314  -2.240762  -2.337048
H  1.128628  -0.881157  -2.240780
H  1.471599  -2.386785  -1.364656
C  -1.281744  1.381734  3.320916
C  -1.919912  0.256919  4.097711
C  -1.547664  -0.119549  5.327635
H  -2.017493  2.188953  3.269752
H  -0.444379  1.804962  3.889624
H  -2.745163  -0.266608  3.618021
H  -2.055118  -0.935436  5.834116
H  -0.739122  0.372062  5.859404

