%mem=6000MB
%chk=IP1_1ginp008.chk
# mPw1PW91/6-311g(d) nmr=giao scrf=(solvent=chloroform)

IP1_1ginp008

0 1
C  0.740499  -0.366175  0.443306
C  -0.757147  -0.449641  0.779522
C  -1.096033  0.673405  1.816339
C  -0.250232  1.946678  1.580433
C  0.411316  2.028703  0.233936
H  1.361254  -0.382456  1.347008
H  -1.295346  -0.227330  -0.149642
H  -0.859076  2.846982  1.721392
H  0.585998  2.011086  2.288214
O  0.967244  0.888692  -0.234593
O  0.522330  3.086488  -0.376397
C  1.225903  -1.479624  -0.497875
C  2.698196  -1.331760  -0.865144
C  -1.224795  -1.846277  1.202844
O  -2.511680  0.953023  1.873434
Si  -3.558339  1.418257  0.657422
C  -4.367163  -0.095462  -0.122901
C  -4.943026  2.457753  1.417976
C  -2.785423  2.435544  -0.706758
H  -5.466726  1.886954  2.190224
H  -4.531232  3.362697  1.874027
H  -5.666099  2.751848  0.651750
H  -2.322520  3.342099  -0.307556
H  -2.029515  1.863681  -1.251024
H  -3.548120  2.743580  -1.428957
H  -4.840113  -0.713574  0.645775
H  -5.134456  0.209326  -0.840688
H  -3.628950  -0.705518  -0.650337
H  -1.203380  -2.536486  0.352803
H  -0.587522  -2.267719  1.986799
H  -2.257033  -1.827046  1.566653
H  0.639244  -1.465140  -1.424385
H  1.089257  -2.460257  -0.030085
H  3.013327  -2.167673  -1.497865
H  2.882734  -0.406052  -1.418850
H  3.326378  -1.329287  0.031279
C  -0.782523  0.168359  3.278911
C  -0.991950  1.199558  4.363957
C  -0.050908  1.584387  5.235375
H  0.241674  -0.219868  3.331877
H  -1.455417  -0.660705  3.532309
H  -1.988047  1.635134  4.432372
H  -0.273512  2.326339  5.996887
H  0.953354  1.173326  5.217214

