%mem=6000MB
%chk=IP1_2ginp013.chk
# mPw1PW91/6-311g(d) nmr=giao scrf=(solvent=chloroform)

IP1_2ginp013

0 1
C  0.013009  0.131060  1.124087
C  -0.940294  1.127796  0.425041
C  -2.196869  1.449515  1.276687
C  -1.702095  1.765665  2.695492
C  -1.037688  0.575471  3.312030
H  0.020029  -0.813354  0.566380
H  -0.394750  2.068575  0.291482
H  -0.973810  2.583446  2.705808
H  -2.533966  2.071455  3.339135
O  -0.380304  -0.246123  2.466897
O  -1.069055  0.358744  4.518174
C  1.464835  0.633806  1.221325
C  2.147408  0.836367  -0.121351
C  -1.265905  0.669005  -1.005492
O  -2.937589  2.516094  0.639867
Si  -2.744643  4.170269  0.776501
C  -3.307646  4.805392  2.452933
C  -0.981502  4.736969  0.473300
C  -3.828791  5.010697  -0.527402
H  -0.922627  5.829341  0.500040
H  -0.300782  4.345620  1.234029
H  -0.631951  4.403448  -0.508244
H  -3.732365  6.098256  -0.461695
H  -3.529495  4.694028  -1.530692
H  -4.878874  4.743959  -0.377110
H  -3.362050  5.898252  2.448040
H  -4.299583  4.414546  2.697935
H  -2.614037  4.508296  3.243881
H  -1.929492  1.378510  -1.509665
H  -0.354033  0.592838  -1.606304
H  -1.744663  -0.315262  -1.016877
H  2.049380  -0.087340  1.807240
H  1.496123  1.568464  1.795241
H  2.109508  -0.077393  -0.722532
H  1.686025  1.647574  -0.691441
H  3.199860  1.097656  0.029335
C  -3.201146  0.243620  1.276797
C  -4.371094  0.417223  2.212694
C  -4.619502  -0.374686  3.263258
H  -2.688616  -0.700020  1.495145
H  -3.634258  0.131405  0.274038
H  -5.050539  1.239589  1.994894
H  -5.482362  -0.199581  3.898958
H  -3.971507  -1.207031  3.522528

