%nprocshared=2
%mem=6000MB
%chk=AT3_2ginp005.chk
# b3lyp/6-31g(d,p) Opt=(maxcycles=100,MaxStep=1) scrf=(solvent=chloroform)

AT3_2ginp005

0 1
C  1.633559  3.116731  -0.454897
C  2.504403  1.995063  0.123459
C  2.159514  0.569663  -0.352186
C  3.220745  -0.473063  0.097718
C  2.914887  -1.861938  -0.496100
O  1.791298  -2.493217  0.099668
N  0.792790  0.126847  0.044780
C  -0.256600  0.339133  -0.973517
C  -4.165846  -0.471080  0.712784
C  -3.382178  -1.527761  0.245642
C  -2.134815  -1.236748  -0.291386
C  -1.622478  0.058435  -0.398298
C  -2.447226  1.071646  0.094198
C  -3.704010  0.843735  0.641249
H  -5.143537  -0.674297  1.136825
H  -3.718614  -2.556886  0.292277
H  -4.292957  1.680134  0.999075
F  -1.370040  -2.254946  -0.745426
F  -1.993954  2.348363  0.030251
H  1.989643  4.092829  -0.109881
H  1.663335  3.122570  -1.550390
H  0.587599  3.026151  -0.147066
H  3.554803  2.189221  -0.129175
H  2.447786  2.029294  1.219182
H  4.174850  -0.148839  -0.343416
H  3.776182  -2.522908  -0.337047
H  2.785471  -1.764145  -1.589145
H  1.123582  -1.777867  0.166031
H  -0.251841  1.352832  -1.389763
H  -0.065518  -0.354431  -1.798001
H  2.173259  0.568871  -1.451115
C  3.400199  -0.563620  1.620929
H  2.468242  -0.860599  2.109757
H  4.151707  -1.320870  1.868213
H  3.732465  0.383702  2.054170
H  0.518658  0.591109  0.907677

