%nprocshared=2
%mem=6000MB
%chk=AT3_1ginp014.chk
# b3lyp/6-31g(d,p) Opt=(maxcycles=100,MaxStep=1) scrf=(solvent=chloroform)

AT3_1ginp014

0 1
C  2.079056  2.744735  -0.023581
C  2.192719  1.715026  1.107209
C  1.894333  0.250300  0.695872
C  2.926563  -0.344448  -0.297774
C  2.665678  -1.840539  -0.505932
O  3.511112  -2.305604  -1.561844
N  0.542423  0.045568  0.142115
C  -0.562883  0.370069  1.050448
C  -4.376699  -0.378435  -0.878590
C  -3.612654  0.730231  -1.248740
C  -2.399686  0.932898  -0.605331
C  -1.895521  0.096572  0.392247
C  -2.699377  -0.997662  0.714483
C  -3.925107  -1.253493  0.109448
H  -5.329333  -0.561221  -1.364486
H  -3.938233  1.424151  -2.014907
H  -4.499964  -2.120578  0.413488
F  -1.643425  2.003612  -0.964314
F  -2.267821  -1.847871  1.674676
H  1.070162  2.765575  -0.450168
H  2.293165  3.751190  0.349514
H  2.781500  2.540508  -0.838705
H  3.191269  1.763236  1.554258
H  1.502581  1.994834  1.912089
H  2.777029  0.136113  -1.276056
H  1.608520  -1.995709  -0.746568
H  2.880267  -2.379861  0.432482
H  3.333350  -3.247241  -1.681687
H  -0.469178  -0.258213  1.940395
H  -0.560796  1.416856  1.394030
H  1.942074  -0.353027  1.615736
C  4.383265  -0.116533  0.132150
H  4.549400  -0.471682  1.157011
H  5.052069  -0.673643  -0.528022
H  4.670073  0.937502  0.090661
H  0.443267  0.603053  -0.703829

