%nprocshared=2
%mem=6000MB
%chk=AT3_1ginp010.chk
# b3lyp/6-31g(d,p) Opt=(maxcycles=100,MaxStep=1) scrf=(solvent=chloroform)

AT3_1ginp010

0 1
C  1.168763  2.467278  1.819922
C  2.132373  1.644519  0.953943
C  1.438244  0.572671  0.094463
C  2.405595  -0.512397  -0.447568
C  2.789736  -1.538947  0.629430
O  1.669599  -2.168978  1.248601
N  0.745265  1.232431  -1.031328
C  -0.331361  0.464984  -1.669775
C  -3.543473  -0.826743  0.969536
C  -2.596740  -1.755968  0.537525
C  -1.584116  -1.317878  -0.306438
C  -1.453787  -0.004310  -0.754891
C  -2.424978  0.878640  -0.276994
C  -3.464662  0.507583  0.564403
H  -4.345015  -1.142464  1.628798
H  -2.631705  -2.795404  0.842386
H  -4.185120  1.249638  0.888501
F  -0.658206  -2.230951  -0.723351
F  -2.332061  2.175015  -0.665744
H  0.618949  1.823578  2.514984
H  1.713681  3.210016  2.411174
H  0.429078  3.012891  1.223069
H  2.705527  2.312142  0.299306
H  2.858747  1.155203  1.612404
H  1.849328  -1.077375  -1.209028
H  3.349362  -1.061624  1.442399
H  3.459945  -2.288808  0.179262
H  1.077981  -2.473652  0.545487
H  -0.761142  1.100584  -2.449372
H  0.092838  -0.406550  -2.172012
H  0.721781  0.050396  0.748433
C  3.652427  0.059648  -1.134469
H  4.329972  0.537714  -0.418768
H  4.215263  -0.729484  -1.644227
H  3.362569  0.806848  -1.877767
H  0.348579  2.110108  -0.707209

