%nprocshared=2
%mem=6000MB
%chk=AT3_2ginp011.chk
# b3lyp/6-31g(d,p) Opt=(maxcycles=100,MaxStep=1) scrf=(solvent=chloroform)

AT3_2ginp011

0 1
C  -3.567296  -2.253910  -1.294969
C  -2.267393  -1.938560  -0.545352
C  -1.899397  -0.438154  -0.477150
C  -2.901739  0.411339  0.346841
C  -2.700514  1.904873  0.038842
O  -3.666496  2.748887  0.669478
N  -0.526763  -0.199292  0.014952
C  0.531206  -0.485012  -0.962701
C  4.445009  0.364028  0.710556
C  3.726588  -0.750502  1.148185
C  2.479413  -0.986913  0.586938
C  1.896702  -0.178619  -0.390779
C  2.658422  0.923107  -0.783058
C  3.915101  1.212061  -0.262008
H  5.422975  0.572662  1.131341
H  4.112761  -1.424111  1.904322
H  4.452851  2.083284  -0.617707
F  1.767130  -2.062330  1.011713
F  2.151658  1.747660  -1.728847
H  -3.718205  -3.335443  -1.372548
H  -4.445843  -1.836790  -0.793287
H  -3.543432  -1.849255  -2.313365
H  -2.319007  -2.346158  0.472902
H  -1.444063  -2.468338  -1.039667
H  -3.912878  0.156857  0.004203
H  -2.820314  2.071802  -1.037776
H  -1.677785  2.200846  0.306389
H  -3.414301  2.838132  1.597151
H  0.532617  -1.528439  -1.319104
H  0.366892  0.149847  -1.836808
H  -1.924000  -0.050077  -1.506495
C  -2.831758  0.141080  1.856947
H  -3.009794  -0.911869  2.096091
H  -1.853909  0.421903  2.263998
H  -3.596024  0.720576  2.383937
H  -0.364384  -0.778358  0.836377

