%mem=6000MB
%chk=AT3_2ginp002.chk
# mPw1PW91/6-311g(d) nmr=giao scrf=(solvent=chloroform)

AT3_2ginp002

0 1
C  -2.265973  -0.136775  -0.635800
C  -2.078767  -0.020155  0.874760
C  -2.864781  -1.084304  1.681277
C  -2.433675  -1.142352  3.182924
C  -2.653920  0.173383  3.949364
O  -4.029365  0.527527  4.004859
N  -4.315304  -0.809872  1.571297
C  -5.122391  -2.032171  1.720296
C  -9.339313  -1.123599  1.473105
C  -8.540605  -1.067940  0.332342
C  -7.181600  -1.365741  0.423939
C  -6.589601  -1.722081  1.637607
C  -7.407670  -1.774267  2.766834
C  -8.769032  -1.479230  2.694500
H  -10.399158  -0.890265  1.411957
H  -8.965114  -0.791764  -0.628175
H  -9.373671  -1.528559  3.595375
F  -6.432479  -1.302010  -0.687218
F  -6.892946  -2.127357  3.953189
H  -1.605405  0.570639  -1.147966
H  -2.015628  -1.143615  -0.984658
H  -3.290047  0.091821  -0.943187
H  -1.006535  -0.117975  1.072604
H  -2.365445  0.991240  1.186962
H  -3.049505  -1.908643  3.671568
H  -2.101630  1.003041  3.497746
H  -2.305005  0.074742  4.982780
H  -4.421135  0.251931  3.147124
H  -4.872387  -2.753499  0.931652
H  -4.907555  -2.525018  2.674179
H  -2.644527  -2.058503  1.223392
C  -0.977928  -1.594979  3.342042
H  -0.269383  -0.825277  3.021855
H  -0.762225  -1.818131  4.392902
H  -0.785289  -2.505291  2.765071
H  -4.524258  -0.435640  0.643568

