%mem=6000MB
%chk=AT3_2ginp003.chk
# mPw1PW91/6-311g(d) nmr=giao scrf=(solvent=chloroform)

AT3_2ginp003

0 1
C  -3.116552  -1.504203  -0.481692
C  -2.548700  -1.220708  0.906923
C  -3.630995  -1.123491  2.012336
C  -3.021504  -1.132715  3.452263
C  -2.071047  0.041949  3.738845
O  -2.740801  1.292803  3.648307
N  -4.441435  0.093746  1.784630
C  -5.765513  0.068556  2.430718
C  -8.528975  -2.784402  0.728236
C  -8.069734  -2.944735  2.034525
C  -7.177359  -2.019506  2.575323
C  -6.724017  -0.924883  1.837525
C  -7.197237  -0.783243  0.531582
C  -8.089316  -1.698104  -0.026107
H  -9.224974  -3.501844  0.300889
H  -8.399740  -3.785015  2.638441
H  -8.434339  -1.555694  -1.046007
F  -6.747849  -2.204189  3.831782
F  -6.783111  0.248643  -0.218186
H  -2.299006  -1.676303  -1.189560
H  -3.747364  -2.398714  -0.472087
H  -3.707387  -0.667253  -0.863666
H  -1.850773  -2.031823  1.137909
H  -1.956297  -0.298898  0.863191
H  -3.855064  -1.057523  4.162108
H  -1.221412  0.054135  3.049317
H  -1.666153  -0.034574  4.753526
H  -3.347530  1.220993  2.879570
H  -5.669936  -0.068747  3.512762
H  -6.207645  1.066868  2.317922
H  -4.262307  -2.014657  1.908348
C  -2.314810  -2.456504  3.765861
H  -1.374480  -2.562438  3.216757
H  -2.075722  -2.515646  4.833566
H  -2.956301  -3.310055  3.523621
H  -4.600577  0.234478  0.785399

