%mem=6000MB
%chk=AT3_2ginp005.chk
# mPw1PW91/6-311g(d) nmr=giao scrf=(solvent=chloroform)

AT3_2ginp005

0 1
C  -2.463418  -1.867677  -0.605788
C  -2.044322  -0.891777  0.484912
C  -2.765844  -1.100318  1.837723
C  -2.108634  -0.228377  2.955473
C  -2.724380  -0.518842  4.337466
O  -4.045993  -0.008991  4.453025
N  -4.208818  -0.807750  1.748242
C  -5.028053  -2.023168  1.658787
C  -9.225246  -1.022655  1.453950
C  -8.683374  -1.533886  2.632312
C  -7.328186  -1.858304  2.690735
C  -6.488753  -1.683479  1.589994
C  -7.051813  -1.170734  0.419541
C  -8.404371  -0.841319  0.342251
H  -10.280251  -0.765828  1.403789
H  -9.305433  -1.681890  3.510243
H  -8.806641  -0.442626  -0.584224
F  -6.839246  -2.358788  3.834131
F  -6.281021  -0.983443  -0.662227
H  -1.820182  -1.745802  -1.483460
H  -2.375407  -2.903629  -0.264307
H  -3.492910  -1.688653  -0.928773
H  -0.963731  -1.002281  0.640018
H  -2.205148  0.126786  0.112322
H  -1.052707  -0.526230  3.016352
H  -2.122358  -0.054720  5.125672
H  -2.751249  -1.595799  4.534296
H  -4.483175  -0.208949  3.597218
H  -4.765917  -2.622730  0.780293
H  -4.841538  -2.657878  2.533776
H  -2.613598  -2.147166  2.135897
C  -2.141838  1.278462  2.664697
H  -3.159914  1.645607  2.501533
H  -1.714572  1.839686  3.503122
H  -1.546627  1.524696  1.780293
H  -4.390559  -0.232560  0.922356

