%mem=6000MB
%chk=AT3_1ginp010.chk
# mPw1PW91/6-311g(d) nmr=giao scrf=(solvent=chloroform)

AT3_1ginp010

0 1
C  -0.492117  -1.030538  1.101023
C  -0.986873  0.095411  2.005223
C  -0.087677  1.358091  1.977084
C  -0.441821  2.363772  3.118374
C  -0.100376  1.821692  4.515343
O  1.268627  1.442315  4.595685
N  -0.192529  1.989053  0.644139
C  0.827797  3.002250  0.349803
C  4.852870  1.448353  0.128697
C  4.437870  2.161182  1.252431
C  3.138128  2.662309  1.315193
C  2.230063  2.469513  0.271777
C  2.664639  1.748061  -0.841367
C  3.960744  1.240586  -0.921903
H  5.863968  1.052804  0.074252
H  5.116325  2.326044  2.084317
H  4.263316  0.683649  -1.803795
F  2.761756  3.327968  2.417778
F  1.823902  1.526797  -1.862270
H  0.547883  -1.286593  1.326722
H  -1.101136  -1.927188  1.256544
H  -0.563352  -0.767824  0.042003
H  -2.015632  0.347428  1.720393
H  -1.032540  -0.306487  3.022566
H  0.189076  3.251268  2.991144
H  -0.711446  0.955050  4.782310
H  -0.277218  2.589019  5.277254
H  1.801008  2.208664  4.313931
H  0.580241  3.447214  -0.622932
H  0.768113  3.844610  1.046871
H  0.939777  1.007298  2.125399
C  -1.898260  2.837097  3.084903
H  -2.594358  2.021825  3.305992
H  -2.062140  3.620097  3.833602
H  -2.159784  3.258278  2.109281
H  -0.139935  1.279434  -0.085726

