%mem=6000MB
%chk=AT3_2ginp004.chk
# mPw1PW91/6-311g(d) nmr=giao scrf=(solvent=chloroform)

AT3_2ginp004

0 1
C  -1.627439  -3.206831  2.346817
C  -2.387893  -2.347542  1.345154
C  -3.387758  -1.364940  1.999512
C  -2.722473  -0.380936  3.013715
C  -3.774046  0.492549  3.727205
O  -4.364754  1.445809  2.855072
N  -4.110361  -0.598414  0.960976
C  -5.208988  -1.333633  0.320265
C  -8.723873  -1.602499  2.817011
C  -8.410571  -0.407976  2.170743
C  -7.277585  -0.333228  1.361455
C  -6.435510  -1.431927  1.180070
C  -6.769863  -2.619226  1.832880
C  -7.899662  -2.713265  2.644933
H  -9.604677  -1.666248  3.450674
H  -9.038630  0.469884  2.290730
H  -8.126622  -3.652864  3.139709
F  -7.009348  0.824097  0.739911
F  -5.991686  -3.702126  1.689306
H  -1.041786  -3.966496  1.818776
H  -0.928995  -2.611517  2.941575
H  -2.314961  -3.721457  3.025310
H  -1.669292  -1.811014  0.714443
H  -2.927622  -3.029852  0.678068
H  -2.252404  -0.982387  3.801978
H  -3.310805  1.043607  4.552392
H  -4.571305  -0.126777  4.152052
H  -4.585240  0.951961  2.034751
H  -5.487766  -0.791977  -0.593078
H  -4.889831  -2.321893  -0.028184
H  -4.102976  -1.957342  2.582975
C  -1.629433  0.498133  2.392668
H  -0.802145  -0.107304  2.010793
H  -2.009179  1.111458  1.569674
H  -1.211003  1.175360  3.145491
H  -3.445704  -0.321342  0.235905

