%mem=6000MB
%chk=AT3_1ginp019.chk
# mPw1PW91/6-311g(d) nmr=giao scrf=(solvent=chloroform)

AT3_1ginp019

0 1
C  -1.768263  0.362276  0.802401
C  -0.948362  1.645504  0.754717
C  0.236407  1.679754  1.751454
C  -0.195061  1.399413  3.225328
C  -1.151701  2.459782  3.788634
O  -1.611024  2.058066  5.077340
N  0.946185  2.971404  1.659894
C  1.683991  3.197591  0.410447
C  5.045769  0.548157  -0.183816
C  3.946995  0.491506  -1.039662
C  2.866580  1.350714  -0.840793
C  2.852346  2.275946  0.203992
C  3.964158  2.317400  1.047852
C  5.053124  1.466207  0.864717
H  5.890712  -0.119289  -0.332960
H  3.921825  -0.217022  -1.862431
H  5.898960  1.525904  1.543272
F  1.823665  1.270650  -1.679427
F  3.994393  3.188100  2.067490
H  -1.125427  -0.519197  0.715429
H  -2.346359  0.286423  1.727686
H  -2.481445  0.343885  -0.028334
H  -0.568792  1.736597  -0.269312
H  -1.613530  2.502769  0.911880
H  -0.711724  0.431646  3.255742
H  -2.032794  2.579970  3.152643
H  -0.657406  3.431243  3.891544
H  -2.191316  2.768101  5.401385
H  1.009939  3.187895  -0.452234
H  2.072779  4.224001  0.437053
H  0.922464  0.868065  1.476939
C  1.019864  1.222005  4.153889
H  0.710116  0.814432  5.122392
H  1.741991  0.521435  3.721408
H  1.532691  2.169255  4.347461
H  1.617043  3.057471  2.424170

