%mem=6000MB
%chk=AT3_2ginp011.chk
# mPw1PW91/6-311g(d) nmr=giao scrf=(solvent=chloroform)

AT3_2ginp011

0 1
C  -0.992706  -1.652372  0.363999
C  -2.482533  -1.336399  0.356501
C  -3.119285  -1.294203  1.765375
C  -2.442750  -0.277814  2.732997
C  -3.033183  -0.405391  4.149725
O  -2.256579  0.335125  5.088415
N  -4.558475  -0.992689  1.671213
C  -5.368076  -2.153806  1.296607
C  -9.570399  -1.155165  1.378103
C  -8.778785  -0.777352  0.294960
C  -7.424294  -1.108102  0.278405
C  -6.831281  -1.817196  1.324882
C  -7.640374  -2.182959  2.401395
C  -8.997168  -1.860716  2.435065
H  -10.626755  -0.900065  1.399924
H  -9.205183  -0.224889  -0.536959
H  -9.596084  -2.163079  3.289075
F  -6.682687  -0.728495  -0.772913
F  -7.120992  -2.868362  3.430145
H  -0.637815  -1.804965  -0.660546
H  -0.408861  -0.832941  0.792661
H  -0.786517  -2.564530  0.932553
H  -2.645884  -0.391944  -0.175707
H  -2.975482  -2.111491  -0.242435
H  -1.378118  -0.530966  2.816185
H  -3.016509  -1.450521  4.475790
H  -4.068440  -0.051887  4.203504
H  -2.507413  1.269441  4.993092
H  -5.111110  -2.512372  0.293103
H  -5.175101  -2.987038  1.983340
H  -2.990435  -2.286777  2.219133
C  -2.509505  1.176460  2.244476
H  -2.070565  1.285133  1.248609
H  -3.540074  1.543764  2.206632
H  -1.945911  1.838770  2.909866
H  -4.711731  -0.252424  0.984899

