%mem=6000MB
%chk=AT3_1ginp001.chk
# mPw1PW91/6-311g(d) nmr=giao scrf=(solvent=chloroform)

AT3_1ginp001

0 1
C  -2.018268  0.551596  0.548750
C  -1.229634  -0.081686  1.688046
C  -0.382155  0.898329  2.536349
C  -1.228950  1.992301  3.268862
C  -0.358993  2.860661  4.203262
O  0.546077  3.674424  3.468088
N  0.667970  1.568015  1.742432
C  1.733422  0.664780  1.299374
C  4.942830  2.927622  -0.498633
C  5.059952  2.465078  0.811375
C  4.022078  1.730498  1.384387
C  2.856810  1.439844  0.673941
C  2.758444  1.914713  -0.635395
C  3.785798  2.650241  -1.224724
H  5.747111  3.503637  -0.949018
H  5.951896  2.673339  1.394934
H  3.673539  3.005032  -2.244848
F  4.166645  1.293218  2.643612
F  1.652337  1.665027  -1.352026
H  -1.359227  1.020330  -0.187592
H  -2.597194  -0.217941  0.027245
H  -2.723718  1.303101  0.913602
H  -1.926298  -0.621103  2.340108
H  -0.583972  -0.862443  1.268773
H  -1.670108  2.657101  2.514244
H  0.218045  2.240242  4.897572
H  -0.982931  3.536055  4.797617
H  0.959797  3.073545  2.809751
H  2.118920  0.085373  2.147007
H  1.361064  -0.060878  0.567149
H  0.109334  0.305512  3.320381
C  -2.366409  1.384371  4.098391
H  -2.891100  2.159050  4.668394
H  -3.114628  0.901938  3.462923
H  -1.985710  0.642642  4.808500
H  0.249599  2.005951  0.918208

