%mem=6000MB
%chk=AT3_2ginp009.chk
# mPw1PW91/6-311g(d) nmr=giao scrf=(solvent=chloroform)

AT3_2ginp009

0 1
C  -0.822810  -1.655038  0.578712
C  -2.302547  -1.311538  0.465052
C  -2.985444  -1.050040  1.827662
C  -2.323749  0.092276  2.657961
C  -3.021680  0.326709  4.011649
O  -3.170184  -0.885728  4.739372
N  -4.416624  -0.750667  1.647713
C  -5.225566  -1.934426  1.355572
C  -9.421884  -0.940874  1.573294
C  -8.757408  -1.431038  2.696668
C  -7.403142  -1.753851  2.616142
C  -6.687619  -1.603441  1.427166
C  -7.369052  -1.103984  0.316480
C  -8.722947  -0.776104  0.378367
H  -10.476951  -0.685627  1.630142
H  -9.282670  -1.562597  3.638057
H  -9.221436  -0.391169  -0.506264
F  -6.789296  -2.223467  3.712263
F  -6.717268  -0.928957  -0.842510
H  -0.234486  -0.801591  0.927084
H  -0.665636  -2.491232  1.267209
H  -0.430162  -1.945741  -0.401167
H  -2.423597  -0.451743  -0.204354
H  -2.792967  -2.156408  -0.033033
H  -1.302756  -0.235739  2.893783
H  -4.008800  0.787761  3.893337
H  -2.420196  1.004743  4.626913
H  -3.952012  -1.328477  4.358307
H  -4.994800  -2.336901  0.362496
H  -5.010259  -2.736737  2.072375
H  -2.887853  -1.968182  2.422554
C  -2.227253  1.428653  1.912574
H  -1.626043  1.340447  1.003294
H  -3.215265  1.809173  1.634224
H  -1.745689  2.185232  2.542119
H  -4.538347  -0.075603  0.891681

