%mem=6000MB
%chk=AT3_2ginp007.chk
# mPw1PW91/6-311g(d) nmr=giao scrf=(solvent=chloroform)

AT3_2ginp007

0 1
C  -2.284759  -0.217302  -0.823752
C  -2.194429  0.012725  0.682452
C  -2.996101  -1.017128  1.516967
C  -2.666077  -0.941716  3.038250
C  -2.967254  0.433216  3.654285
O  -2.811178  0.387201  5.071246
N  -4.440361  -0.811539  1.298610
C  -5.228216  -2.024558  1.540658
C  -9.445710  -1.160802  1.200308
C  -8.832394  -1.180223  2.452221
C  -7.470757  -1.464362  2.554377
C  -6.697053  -1.737622  1.425293
C  -7.328874  -1.707351  0.181066
C  -8.688985  -1.425266  0.059874
H  -10.506069  -0.937735  1.114213
H  -9.403733  -0.973668  3.352379
H  -9.147053  -1.410629  -0.924587
F  -6.909545  -1.480458  3.772463
F  -6.620836  -1.951473  -0.931603
H  -1.615033  0.473702  -1.346306
H  -1.984225  -1.237449  -1.082734
H  -3.294438  -0.045573  -1.206587
H  -1.134066  -0.034543  0.951229
H  -2.529472  1.033502  0.903110
H  -3.280782  -1.681369  3.567335
H  -3.990036  0.760949  3.444085
H  -2.281954  1.197829  3.275769
H  -3.518706  -0.188119  5.410964
H  -4.954903  -2.805554  0.819550
H  -5.027668  -2.441845  2.533235
H  -2.715438  -2.014346  1.150906
C  -1.215248  -1.355215  3.328762
H  -0.497879  -0.599733  2.994535
H  -1.061795  -1.497954  4.404026
H  -0.973730  -2.302590  2.835634
H  -4.614772  -0.525263  0.335708

