%mem=6000MB
%chk=AT3_1ginp004.chk
# mPw1PW91/6-311g(d) nmr=giao scrf=(solvent=chloroform)

AT3_1ginp004

0 1
C  -1.815607  0.322222  0.634073
C  -0.999147  1.588405  0.862123
C  0.114291  1.443470  1.929332
C  -0.431962  0.932719  3.304891
C  -1.463252  1.872162  3.954634
O  -0.913242  3.147551  4.255545
N  0.839020  2.721944  2.110629
C  1.586372  3.197713  0.936074
C  4.864733  0.652188  -0.268411
C  3.780688  0.852167  -1.121489
C  2.726643  1.674740  -0.724506
C  2.723757  2.309415  0.518419
C  3.821418  2.097934  1.355549
C  4.884040  1.279021  0.976068
H  5.689631  0.012611  -0.572102
H  3.747430  0.373764  -2.096030
H  5.719299  1.136869  1.655543
F  1.698782  1.847093  -1.567649
F  3.862025  2.685042  2.560589
H  -2.456419  0.093817  1.490282
H  -2.469318  0.451287  -0.234911
H  -1.164709  -0.536526  0.442499
H  -0.552120  1.847008  -0.103957
H  -1.675976  2.412173  1.117982
H  -0.933813  -0.027054  3.130160
H  -1.830977  1.441049  4.891884
H  -2.332729  2.018957  3.307227
H  -0.415419  3.423547  3.456208
H  0.910401  3.406638  0.100579
H  2.009927  4.178100  1.190840
H  0.818771  0.679546  1.575406
C  0.704612  0.625243  4.293765
H  1.452638  -0.029630  3.834656
H  1.210585  1.528330  4.647972
H  0.309154  0.107712  5.174905
H  1.523700  2.616895  2.864805

