%mem=6000MB
%chk=AT3_1ginp006.chk
# mPw1PW91/6-311g(d) nmr=giao scrf=(solvent=chloroform)

AT3_1ginp006

0 1
C  -1.607827  -0.812640  2.255697
C  -0.184175  -0.431896  2.642203
C  0.189227  1.057255  2.436496
C  -0.687759  2.047277  3.274299
C  -0.190598  3.502786  3.141359
O  -0.417242  4.015277  1.835012
N  0.124855  1.459943  1.014958
C  1.187256  0.910085  0.164850
C  5.040375  2.723224  0.887517
C  4.771520  1.437829  1.354701
C  3.526409  0.858328  1.112617
C  2.529647  1.535255  0.408380
C  2.820888  2.819865  -0.054137
C  4.059772  3.415765  0.179278
H  6.007524  3.183010  1.073702
H  5.522019  0.881920  1.908708
H  4.247990  4.417987  -0.194423
F  3.292799  -0.377141  1.579098
F  1.902279  3.504042  -0.750942
H  -1.794304  -0.653199  1.189972
H  -1.774997  -1.875180  2.461736
H  -2.348191  -0.246742  2.827612
H  -0.020852  -0.706262  3.690912
H  0.507269  -1.069900  2.079750
H  -1.717881  2.011343  2.895549
H  0.879450  3.578899  3.363437
H  -0.723561  4.159692  3.836432
H  -0.080914  3.325771  1.220850
H  1.239087  -0.181757  0.231702
H  0.915274  1.109696  -0.879970
H  1.217554  1.182504  2.797740
C  -0.708759  1.681552  4.763606
H  0.306261  1.618341  5.169983
H  -1.257721  2.432653  5.342240
H  -1.209973  0.724889  4.936506
H  -0.777672  1.180092  0.627963

