%nprocshared=4
%mem=6000MB
%chk=IP1_2ginp017.chk
# m062x/def2tzvp int=ultrafine scrf=(solvent=chloroform)

IP1_2ginp017

0 1
C  2.114272  0.689560  0.515274
C  0.864144  1.579096  0.313660
C  -0.266737  0.828235  -0.438913
C  0.300327  0.308771  -1.765292
C  1.594800  -0.467556  -1.639286
H  2.990154  1.347579  0.557533
H  0.472272  1.800083  1.312232
H  -0.415505  -0.326981  -2.291205
H  0.506325  1.152546  -2.434771
O  2.423985  -0.184954  -0.620380
O  1.935203  -1.298631  -2.458404
C  2.122667  -0.168625  1.784032
C  3.443403  -0.910815  2.007346
C  1.264146  2.915518  -0.338874
O  -0.659380  -0.258550  0.406178
Si  -1.553347  -1.678497  0.230499
C  -3.062921  -1.479601  -0.888527
C  -0.464553  -3.070708  -0.425054
C  -2.115340  -2.073208  1.982320
H  -1.051159  -3.992558  -0.515145
H  -0.038081  -2.847867  -1.407529
H  0.368278  -3.273443  0.256802
H  -1.261086  -2.167354  2.660785
H  -2.771642  -1.289746  2.375525
H  -2.668586  -3.018720  2.008653
H  -3.621497  -2.423246  -0.898892
H  -3.742182  -0.700661  -0.527280
H  -2.802066  -1.248852  -1.926718
H  2.033781  3.403098  0.267200
H  1.680944  2.779927  -1.342473
H  0.420381  3.604554  -0.407025
H  1.285349  -0.868919  1.749146
H  1.932935  0.507838  2.627068
H  3.410811  -1.485165  2.938289
H  3.649913  -1.604395  1.188008
H  4.285910  -0.212759  2.075722
C  -1.499884  1.728101  -0.710020
C  -2.120975  2.313942  0.528286
C  -2.434816  3.600742  0.688491
H  -2.238503  1.101815  -1.225706
H  -1.233841  2.525838  -1.410334
H  -2.328822  1.610342  1.332766
H  -2.899815  3.964695  1.600072
H  -2.247075  4.337667  -0.089535

