%nprocshared=4
%mem=6000MB
%chk=IP1_4ginp001.chk
# m062x/def2tzvp int=ultrafine scrf=(solvent=chloroform)

IP1_4ginp001

0 1
C  -2.358632  0.147914  0.302777
C  -0.982900  0.262237  0.974847
C  0.122638  0.124925  -0.107987
C  -0.035737  -1.254757  -0.767594
C  -1.454701  -1.645572  -1.151287
H  -2.480572  0.984034  -0.394744
H  -0.921374  1.285207  1.364304
H  0.578260  -1.352796  -1.667022
H  0.303081  -2.026601  -0.068014
O  -2.489209  -1.066959  -0.506250
O  -1.684384  -2.518213  -1.962619
C  -3.552414  0.150966  1.255745
C  -4.901468  0.240683  0.535686
C  -0.797291  -0.710754  2.150396
O  1.378728  0.249537  0.554480
Si  2.968770  -0.198933  0.229603
C  3.214379  -2.061016  0.419803
C  3.536519  0.329343  -1.492224
C  3.957384  0.713678  1.543656
H  4.600974  0.095737  -1.613342
H  2.998268  -0.191277  -2.291392
H  3.414890  1.406421  -1.647334
H  5.025031  0.482921  1.457074
H  3.839625  1.797994  1.447005
H  3.634315  0.429745  2.550571
H  4.283541  -2.298660  0.368926
H  2.842511  -2.419256  1.385643
H  2.714826  -2.632944  -0.368452
H  -1.452465  -0.439523  2.981919
H  -1.029339  -1.744852  1.875673
H  0.232750  -0.673536  2.507826
H  -3.432468  1.007101  1.931231
H  -3.519341  -0.750614  1.876421
H  -5.725304  0.239106  1.255637
H  -4.974908  1.161013  -0.054531
H  -5.040961  -0.605799  -0.141822
C  0.028444  1.235832  -1.192821
C  0.075279  2.638566  -0.653478
C  -0.796304  3.602659  -0.955586
H  -0.870695  1.099930  -1.803983
H  0.878282  1.077640  -1.868410
H  0.899588  2.856921  0.023695
H  -0.701275  4.604831  -0.547819
H  -1.632264  3.429162  -1.629987

