%nprocshared=4
%mem=6000MB
%chk=IP1_2ginp001.chk
# m062x/def2tzvp int=ultrafine scrf=(solvent=chloroform)

IP1_2ginp001

0 1
C  -2.314229  -0.552391  -0.368994
C  -0.841134  -0.935202  -0.590736
C  0.097984  0.289727  -0.398498
C  -0.130569  0.811133  1.027083
C  -1.581442  1.071482  1.381133
H  -2.675157  -0.000006  -1.246288
H  -0.558583  -1.648957  0.194945
H  0.223403  0.065953  1.749799
H  0.420057  1.734657  1.213559
O  -2.536968  0.351195  0.759415
O  -1.913943  1.860496  2.240751
C  -3.234096  -1.751561  -0.126072
C  -4.714114  -1.378085  0.000678
C  -0.660535  -1.630928  -1.948965
O  1.449513  -0.115148  -0.597035
Si  2.676705  -0.786802  0.338620
C  3.379208  0.479940  1.547302
C  2.110237  -2.325682  1.276453
C  3.984036  -1.258649  -0.928748
H  2.966027  -2.771445  1.797201
H  1.348376  -2.111923  2.033411
H  1.707039  -3.083946  0.596892
H  4.864372  -1.690437  -0.439742
H  3.598044  -1.998116  -1.638082
H  4.314198  -0.385575  -1.501145
H  3.676400  1.396296  1.026383
H  2.667159  0.756275  2.331138
H  4.270560  0.074681  2.040513
H  0.402736  -1.740968  -2.170936
H  -1.108702  -2.627453  -1.946660
H  -1.120896  -1.062709  -2.763835
H  -2.893830  -2.267278  0.780703
H  -3.105419  -2.453711  -0.956419
H  -4.879111  -0.696461  0.838550
H  -5.076323  -0.887496  -0.909776
H  -5.323750  -2.272089  0.162544
C  -0.171866  1.407477  -1.442436
C  0.739194  2.597793  -1.313171
C  0.330583  3.849825  -1.100507
H  -1.214187  1.737943  -1.372266
H  -0.038336  0.963145  -2.436014
H  1.802726  2.390631  -1.414586
H  1.034022  4.674390  -1.029305
H  -0.723032  4.098199  -0.993443

