%nprocshared=4
%mem=6000MB
%chk=IP1_3ginp006.chk
# m062x/def2tzvp int=ultrafine scrf=(solvent=chloroform)

IP1_3ginp006

0 1
C  2.172252  -0.883042  0.702953
C  1.083003  -0.012742  1.354855
C  0.008582  0.464220  0.335951
C  0.658392  0.638171  -1.070395
C  2.171446  0.720810  -1.129017
H  2.952310  -1.052663  1.453513
H  1.625827  0.886130  1.670811
H  0.387365  -0.238439  -1.667141
H  0.274215  1.515498  -1.592464
O  2.872661  -0.087388  -0.303889
O  2.771631  1.424293  -1.914723
C  1.763620  -2.246363  0.137029
C  2.950852  -3.042583  -0.414491
C  0.498739  -0.665105  2.612631
O  -0.994191  -0.549944  0.261967
Si  -2.562542  -0.635990  -0.348603
C  -2.887769  -2.484502  -0.476448
C  -3.804084  0.140558  0.842232
C  -2.719381  0.167956  -2.050606
H  -4.826030  -0.057407  0.497937
H  -3.705244  -0.286180  1.846116
H  -3.688495  1.225497  0.925454
H  -2.030700  -0.277200  -2.776215
H  -3.737396  0.019012  -2.429633
H  -2.535202  1.247067  -2.030724
H  -2.194172  -2.963764  -1.175121
H  -2.774000  -2.973349  0.496747
H  -3.906869  -2.677140  -0.829912
H  -0.169051  0.023662  3.137750
H  -0.073013  -1.562643  2.372479
H  1.301973  -0.936000  3.305845
H  0.994795  -2.127605  -0.631437
H  1.291330  -2.808962  0.950197
H  2.622791  -4.017391  -0.787647
H  3.438205  -2.511447  -1.236798
H  3.704489  -3.218236  0.361491
C  -0.640382  1.803776  0.795178
C  0.285716  2.986219  0.893824
C  0.255599  4.041197  0.077099
H  -1.119115  1.624028  1.765317
H  -1.437999  2.042966  0.083426
H  1.017141  2.974370  1.700952
H  0.945383  4.871567  0.193755
H  -0.463264  4.115372  -0.735876

