%nprocshared=5
%mem=6000MB
%chk=IP1_4ginp009.chk
# m062x/def2tzvp int=ultrafine scrf=(solvent=chloroform)

IP1_4ginp009

0 1
C  2.270076  0.471706  -0.508489
C  0.980352  1.190918  -0.966450
C  -0.257287  0.778432  -0.131918
C  0.075822  1.057926  1.340652
C  1.410635  0.529885  1.819683
H  3.112625  1.083101  -0.853846
H  1.144193  2.252480  -0.740129
H  0.098872  2.143465  1.499056
H  -0.692229  0.661003  2.006051
O  2.435052  0.471967  0.944653
O  1.618418  0.244999  2.981969
C  2.504586  -0.963559  -0.996436
C  3.892956  -1.494830  -0.624795
C  0.784662  1.062955  -2.483410
O  -0.463830  -0.621024  -0.324359
Si  -1.695288  -1.721833  0.010006
C  -3.078971  -1.602314  -1.268421
C  -0.848342  -3.395284  -0.132848
C  -2.411868  -1.514159  1.744526
H  -1.567384  -4.208398  0.017384
H  -0.395388  -3.528284  -1.120846
H  -0.057759  -3.504459  0.616737
H  -3.135632  -2.315816  1.934232
H  -1.635506  -1.583190  2.513644
H  -2.939906  -0.564066  1.877774
H  -3.636898  -0.663360  -1.199605
H  -2.685052  -1.686751  -2.286940
H  -3.792352  -2.421695  -1.120822
H  1.723297  1.251561  -3.014531
H  0.431928  0.065605  -2.755808
H  0.055704  1.790711  -2.849431
H  2.391849  -0.976155  -2.085704
H  1.723262  -1.609871  -0.591346
H  4.028899  -2.514042  -0.999602
H  4.686614  -0.873194  -1.055824
H  4.032049  -1.510593  0.459207
C  -1.539541  1.558527  -0.541407
C  -1.428271  3.059838  -0.539627
C  -2.061777  3.868062  0.312845
H  -2.341867  1.260121  0.143479
H  -1.827037  1.211191  -1.540272
H  -0.792557  3.503727  -1.305217
H  -1.954268  4.947442  0.261649
H  -2.716735  3.478984  1.089087

