%nprocshared=4
%mem=6000MB
%chk=IP1_2ginp013.chk
# m062x/def2tzvp int=ultrafine scrf=(solvent=chloroform)

IP1_2ginp013

0 1
C  2.438046  -0.423687  0.252018
C  0.982076  -0.798640  0.640176
C  -0.025845  0.363445  0.410581
C  0.191097  0.866568  -1.024727
C  1.597301  1.377776  -1.251111
H  2.997405  -0.186551  1.163494
H  0.651883  -1.587406  -0.048179
H  0.015180  0.047867  -1.733352
H  -0.490732  1.679322  -1.277231
O  2.588586  0.799355  -0.542242
O  1.868868  2.284292  -2.009677
C  3.188431  -1.508909  -0.533613
C  3.402201  -2.832093  0.207552
C  0.924143  -1.367033  2.066675
O  -1.349195  -0.128032  0.603008
Si  -2.530677  -0.876265  -0.332817
C  -3.289403  0.330994  -1.568515
C  -1.879275  -2.397800  -1.243692
C  -3.822723  -1.399867  0.929502
H  -2.707550  -2.893882  -1.763657
H  -1.124042  -2.156464  -1.999014
H  -1.443483  -3.125606  -0.550983
H  -4.672451  -1.886336  0.437630
H  -3.403704  -2.107335  1.652564
H  -4.206686  -0.538840  1.486270
H  -4.165445  -0.123377  -2.046102
H  -3.622046  1.247368  -1.069505
H  -2.592821  0.615421  -2.363312
H  -0.110087  -1.588943  2.340341
H  1.501976  -2.290106  2.149927
H  1.327757  -0.661234  2.799193
H  4.160020  -1.086848  -0.812240
H  2.646173  -1.690127  -1.470677
H  3.908322  -2.678285  1.166743
H  2.461068  -3.354917  0.401249
H  4.027860  -3.498875  -0.393064
C  0.154075  1.514541  1.436946
C  -0.761154  2.686741  1.210479
C  -0.356792  3.941749  1.007967
H  1.196683  1.850635  1.436481
H  -0.050593  1.091292  2.426881
H  -1.826772  2.464292  1.229951
H  -1.065347  4.752406  0.864364
H  0.697776  4.206604  0.981518

