%nprocshared=4
%mem=6000MB
%chk=IP1_2ginp009.chk
# m062x/def2tzvp int=ultrafine scrf=(solvent=chloroform)

IP1_2ginp009

0 1
C  -2.444667  -0.302925  -0.444286
C  -1.005550  -0.791929  -0.684963
C  0.043832  0.295685  -0.313330
C  -0.195960  0.641169  1.164423
C  -1.619736  1.046728  1.488545
H  -2.736919  0.359511  -1.269308
H  -0.810568  -1.626223  0.002847
H  0.012487  -0.245067  1.776573
H  0.459573  1.436539  1.520254
O  -2.618541  0.512716  0.758852
O  -1.898323  1.788988  2.407159
C  -3.467266  -1.436129  -0.328119
C  -4.915295  -0.951926  -0.208485
C  -0.849445  -1.319212  -2.120073
O  1.341938  -0.238066  -0.528578
Si  2.578202  -0.919928  0.381976
C  3.323104  0.322325  1.590844
C  2.004141  -2.460002  1.314268
C  3.855109  -1.401520  -0.912188
H  2.863600  -2.942206  1.794979
H  1.277259  -2.237268  2.102503
H  1.551935  -3.191651  0.636196
H  4.735704  -1.854669  -0.443279
H  3.443614  -2.126140  -1.622533
H  4.190060  -0.527520  -1.480089
H  4.245866  -0.082773  2.022559
H  3.575002  1.257899  1.081172
H  2.650369  0.560621  2.420771
H  0.203008  -1.523015  -2.326381
H  -1.407077  -2.247943  -2.263929
H  -1.209400  -0.598665  -2.861791
H  -3.199235  -2.050010  0.540950
H  -3.368336  -2.077244  -1.210365
H  -5.050249  -0.325314  0.676456
H  -5.208744  -0.364743  -1.085873
H  -5.599941  -1.801949  -0.132310
C  -0.074379  1.552436  -1.221637
C  0.858630  2.680669  -0.872337
C  1.884944  3.076308  -1.626933
H  -1.107595  1.921907  -1.180045
H  0.113662  1.234650  -2.250980
H  0.653142  3.217498  0.053501
H  2.518053  3.909894  -1.337007
H  2.124516  2.583683  -2.566371

