%nprocshared=4
%mem=6000MB
%chk=IP1_1ginp004.chk
# m062x/def2tzvp int=ultrafine scrf=(solvent=chloroform)

IP1_1ginp004

0 1
C  2.473658  0.310613  0.101338
C  1.128531  0.296601  0.838034
C  -0.039990  0.118997  -0.172302
C  0.192908  -1.252929  -0.829196
C  1.581546  -1.461170  -1.405867
H  2.544608  1.236224  -0.482813
H  1.088916  -0.603470  1.464845
H  0.052906  -2.032459  -0.071151
H  -0.519018  -1.453694  -1.633938
O  2.612523  -0.772591  -0.876514
O  1.805126  -2.262715  -2.289238
C  3.720885  0.218467  0.988053
C  3.789213  -1.010903  1.898908
C  1.000989  1.507308  1.774177
O  -1.244405  0.121486  0.588412
Si  -2.793446  -0.513420  0.394002
C  -3.524341  -0.131960  -1.304307
C  -2.809832  -2.378571  0.682989
C  -3.790425  0.345947  1.737010
H  -2.296428  -2.933193  -0.108685
H  -2.337967  -2.636386  1.637232
H  -3.844444  -2.739916  0.717417
H  -3.808219  1.430427  1.587065
H  -4.826989  -0.009119  1.739725
H  -3.367942  0.151397  2.728280
H  -3.530766  0.943025  -1.512378
H  -2.986697  -0.631283  -2.117219
H  -4.562834  -0.481992  -1.339979
H  1.697952  1.419274  2.612295
H  1.202248  2.449369  1.258895
H  -0.010547  1.551070  2.181737
H  3.784384  1.136846  1.581433
H  4.587530  0.226365  0.317759
H  3.684974  -1.933753  1.320518
H  4.753438  -1.047271  2.414454
H  3.008293  -0.999796  2.665739
C  -0.130455  1.198580  -1.287139
C  -0.439619  2.604162  -0.848940
C  0.171108  3.695442  -1.314083
H  -0.932218  0.865346  -1.959806
H  0.784455  1.192170  -1.890755
H  -1.250321  2.709847  -0.130453
H  -0.121306  4.691290  -0.994188
H  0.983223  3.634613  -2.035381

