%nprocshared=4
%mem=6000MB
%chk=IP1_3ginp009.chk
# m062x/def2tzvp int=ultrafine scrf=(solvent=chloroform)

IP1_3ginp009

0 1
C  -2.270076  0.471703  -0.508490
C  -0.980353  1.190916  -0.966451
C  0.257286  0.778432  -0.131918
C  -0.075824  1.057927  1.340651
C  -1.410637  0.529886  1.819683
H  -3.112626  1.083097  -0.853848
H  -1.144195  2.252478  -0.740132
H  0.692227  0.661004  2.006051
H  -0.098874  2.143466  1.499054
O  -2.435053  0.471966  0.944652
O  -1.618420  0.245000  2.981968
C  -2.504585  -0.963563  -0.996435
C  -3.892955  -1.494834  -0.624794
C  -0.784662  1.062951  -2.483411
O  0.463830  -0.621024  -0.324357
Si  1.695290  -1.721831  0.010007
C  0.848348  -3.395284  -0.132848
C  3.078975  -1.602310  -1.268419
C  2.411869  -1.514157  1.744528
H  3.636900  -0.663354  -1.199602
H  3.792357  -2.421689  -1.120819
H  2.685056  -1.686747  -2.286938
H  1.635506  -1.583188  2.513645
H  3.135633  -2.315813  1.934234
H  2.939905  -0.564063  1.877776
H  0.057765  -3.504460  0.616737
H  0.395393  -3.528283  -1.120847
H  1.567390  -4.208396  0.017382
H  -0.055704  1.790708  -2.849432
H  -0.431926  0.065602  -2.755808
H  -1.723297  1.251556  -3.014532
H  -1.723261  -1.609874  -0.591344
H  -2.391847  -0.976161  -2.085703
H  -4.028897  -2.514047  -0.999600
H  -4.032049  -1.510596  0.459207
H  -4.686613  -0.873200  -1.055825
C  1.539540  1.558528  -0.541407
C  1.428267  3.059838  -0.539628
C  2.061772  3.868065  0.312843
H  1.827036  1.211192  -1.540271
H  2.341865  1.260124  0.143479
H  0.792554  3.503726  -1.305219
H  1.954262  4.947444  0.261647
H  2.716730  3.478987  1.089087

