%nprocshared=5
%mem=6000MB
%chk=IP1_4ginp007.chk
# m062x/def2tzvp int=ultrafine scrf=(solvent=chloroform)

IP1_4ginp007

0 1
C  -2.443338  0.346572  0.272099
C  -1.074265  0.321428  0.967763
C  0.041324  0.140935  -0.101173
C  -0.216452  -1.200027  -0.811066
C  -1.652798  -1.453763  -1.241170
H  -2.493636  1.219172  -0.389633
H  -0.936194  1.310283  1.419054
H  0.411127  -1.321372  -1.697828
H  0.037290  -2.019589  -0.129930
O  -2.651794  -0.816078  -0.593431
O  -1.936423  -2.269465  -2.093290
C  -3.649148  0.398612  1.208963
C  -4.975305  0.625820  0.476929
C  -0.991125  -0.720416  2.096393
O  1.284402  0.139828  0.587699
Si  2.835125  -0.444564  0.299988
C  2.916935  -2.308508  0.591377
C  3.455865  -0.065176  -1.442578
C  3.892624  0.450530  1.571053
H  4.484171  -0.430344  -1.550371
H  2.856855  -0.551705  -2.219678
H  3.465232  1.010537  -1.645172
H  3.550359  0.241022  2.589819
H  4.939804  0.136266  1.498426
H  3.854430  1.534229  1.420734
H  2.370574  -2.876138  -0.168914
H  3.959710  -2.646288  0.564194
H  2.508378  -2.577400  1.571442
H  -1.626814  -0.429879  2.936388
H  -1.314343  -1.713995  1.770280
H  0.034191  -0.794739  2.461086
H  -3.474938  1.209992  1.926710
H  -3.695416  -0.530870  1.785747
H  -5.807935  0.657095  1.185940
H  -4.967402  1.574188  -0.071963
H  -5.169530  -0.176397  -0.239768
C  0.061550  1.282633  -1.161428
C  0.225960  2.676810  -0.621412
C  1.234845  3.493909  -0.927341
H  -0.859766  1.230881  -1.757835
H  0.879451  1.064976  -1.855314
H  -0.555441  3.043886  0.043278
H  1.294504  4.501462  -0.526396
H  2.034084  3.188196  -1.598398

