%nprocshared=4
%mem=6000MB
%chk=IP1_2ginp006.chk
# m062x/def2tzvp int=ultrafine scrf=(solvent=chloroform)

IP1_2ginp006

0 1
C  -2.356946  0.415601  0.118053
C  -1.182014  0.203283  -0.853180
C  0.126069  0.840925  -0.268746
C  0.029220  0.887679  1.284466
C  -0.834657  -0.187423  1.896075
H  -2.450333  1.481190  0.369925
H  -0.997846  -0.876098  -0.859273
H  1.018544  0.860214  1.737187
H  -0.423139  1.844699  1.573385
O  -2.065373  -0.314088  1.351872
O  -0.519231  -0.891147  2.834451
C  -3.728378  -0.087872  -0.337633
C  -3.801559  -1.583581  -0.662263
C  -1.492011  0.623851  -2.295291
O  1.249497  0.082608  -0.712095
Si  2.011375  -1.362068  -0.292960
C  2.820564  -1.256267  1.407222
C  0.837832  -2.841118  -0.323706
C  3.320201  -1.560661  -1.629350
H  0.346638  -2.956145  -1.295791
H  1.411377  -3.756652  -0.134791
H  0.063244  -2.781667  0.447538
H  2.865165  -1.634852  -2.622507
H  4.011481  -0.711565  -1.639253
H  3.909173  -2.469474  -1.461935
H  3.446504  -2.141648  1.570710
H  3.465246  -0.375094  1.494992
H  2.078230  -1.222945  2.210704
H  -0.604070  0.503989  -2.921886
H  -2.279508  -0.001820  -2.721973
H  -1.820079  1.665388  -2.366397
H  -4.037510  0.509495  -1.202186
H  -4.438348  0.144761  0.464229
H  -3.496633  -2.184294  0.198600
H  -4.826373  -1.863441  -0.923512
H  -3.160825  -1.855663  -1.506838
C  0.367340  2.282931  -0.788954
C  1.551458  2.968085  -0.165064
C  1.505009  4.135083  0.479489
H  -0.535646  2.883767  -0.627607
H  0.527336  2.215325  -1.870542
H  2.505461  2.455109  -0.275634
H  2.397465  4.591992  0.897170
H  0.573284  4.682291  0.606591

