%nprocshared=4
%mem=6000MB
%chk=IP1_2ginp018.chk
# m062x/def2tzvp int=ultrafine scrf=(solvent=chloroform)

IP1_2ginp018

0 1
C  -2.313998  -0.552404  -0.369095
C  -0.840825  -0.935031  -0.590670
C  0.097988  0.290148  -0.398469
C  -0.130545  0.811491  1.027090
C  -1.581536  1.071038  1.381537
H  -2.674791  0.000141  -1.246345
H  -0.558266  -1.648618  0.195155
H  0.223982  0.066591  1.749808
H  0.419544  1.735372  1.213401
O  -2.536917  0.350884  0.759485
O  -1.914128  1.859363  2.241741
C  -3.233860  -1.751649  -0.126581
C  -4.713886  -1.378203  0.000131
C  -0.659989  -1.630908  -1.948787
O  1.449724  -0.114270  -0.597113
Si  2.676561  -0.786732  0.338523
C  3.983534  -1.259518  -0.928856
C  3.379736  0.479713  1.547107
C  2.109621  -2.325308  1.276576
H  4.270915  0.074127  2.040350
H  3.677269  1.395936  1.026144
H  2.667770  0.756392  2.330905
H  2.965619  -2.771753  1.796404
H  1.348739  -2.111051  2.034382
H  1.705147  -3.083219  0.597392
H  4.863876  -1.690941  -0.439484
H  3.597467  -1.999709  -1.637392
H  4.313800  -0.387066  -1.502116
H  0.403314  -1.740304  -2.170908
H  -1.107538  -2.627709  -1.946213
H  -1.120843  -1.063138  -2.763695
H  -2.893670  -2.267616  0.780083
H  -3.105097  -2.453570  -0.957106
H  -4.878964  -0.696844  0.838202
H  -5.075972  -0.887300  -0.910205
H  -5.323560  -2.272247  0.161621
C  -0.172125  1.407835  -1.442443
C  0.738933  2.598166  -1.313391
C  0.330335  3.850138  -1.100351
H  -1.214432  1.738291  -1.372042
H  -0.038804  0.963423  -2.436008
H  1.802427  2.391036  -1.415229
H  1.033738  4.674742  -1.029252
H  -0.723259  4.098427  -0.992872

