%nprocshared=2
%mem=6000MB
%chk=P_ng_4ginp003.chk
# b3lyp/6-31g(d,p) Opt=(maxcycles=50) scrf=(solvent=chloroform)

P_ng_4ginp003

0 1
C  -2.358478  0.222846  0.286580
C  -0.990035  0.244894  0.981522
C  0.119503  -0.008209  -0.076645
C  -0.139176  -1.386923  -0.709060
C  -1.582536  -1.695998  -1.076372
H  -2.398606  1.039243  -0.442925
H  -0.853182  1.268110  1.350643
H  0.459337  -1.543927  -1.609040
H  0.160526  -2.163428  0.003845
O  -2.576852  -1.007795  -0.477223
O  -1.871801  -2.594010  -1.839872
C  -3.563114  0.361845  1.215796
C  -4.887882  0.537623  0.467010
C  -0.902851  -0.714386  2.179864
O  1.362878  -0.005940  0.620013
Si  2.989446  -0.183557  0.221806
C  3.284719  -1.493671  -1.104974
C  3.731258  1.454820  -0.350866
C  3.792162  -0.709738  1.839758
H  4.808882  1.336155  -0.514509
H  3.293049  1.808939  -1.289403
H  3.596376  2.239674  0.400966
H  4.877684  -0.804470  1.724515
H  3.602528  0.023210  2.630892
H  3.405037  -1.676340  2.178615
H  4.364045  -1.623632  -1.247988
H  2.869755  -2.465819  -0.820593
H  2.860967  -1.214522  -2.075291
H  -1.545782  -0.372859  2.994949
H  -1.215294  -1.731065  1.920573
H  0.121547  -0.755330  2.552101
H  -3.382074  1.229038  1.862903
H  -3.616461  -0.516147  1.867808
H  -5.720578  0.633424  1.170192
H  -4.872867  1.437384  -0.158268
H  -5.087997  -0.319486  -0.181352
C  0.135396  1.079321  -1.187921
C  0.221855  2.494325  -0.685473
C  -0.581632  3.487825  -1.069800
H  -0.739182  0.970998  -1.838987
H  1.004025  0.858679  -1.823353
H  1.011723  2.697563  0.035349
H  -0.463688  4.496765  -0.685541
H  -1.380955  3.332150  -1.791236

