%nprocshared=2
%mem=6000MB
%chk=P_ng_2ginp008.chk
# b3lyp/6-31g(d,p) Opt=(maxcycles=50) scrf=(solvent=chloroform)

P_ng_2ginp008

0 1
C  -2.219480  -0.171568  -0.307807
C  -0.815599  -0.230796  -0.936042
C  0.134572  0.776862  -0.212786
C  -0.295957  0.921660  1.279640
C  -1.129364  -0.199689  1.854226
H  -2.581330  0.866035  -0.265464
H  -0.445035  -1.232936  -0.684516
H  0.579197  1.065375  1.912497
H  -0.906955  1.827472  1.384270
O  -2.121607  -0.666866  1.062235
O  -0.997782  -0.653882  2.971548
C  -3.279675  -1.036358  -0.985342
C  -4.638532  -0.997676  -0.279010
C  -0.809721  -0.104817  -2.465080
O  1.491347  0.348737  -0.296821
Si  2.359151  -1.079445  -0.084562
C  2.413207  -2.052478  -1.700761
C  4.092535  -0.494165  0.354268
C  1.667726  -2.168871  1.291043
H  4.777010  -1.343658  0.457337
H  4.493951  0.165859  -0.421904
H  4.098664  0.057848  1.299938
H  1.508352  -1.614218  2.220225
H  0.717563  -2.641041  1.020929
H  2.381880  -2.974290  1.500321
H  3.064371  -2.928107  -1.594292
H  1.425017  -2.413033  -2.004332
H  2.812501  -1.440433  -2.516689
H  0.217112  -0.053662  -2.836074
H  -1.283085  -0.974054  -2.927787
H  -1.339559  0.787920  -2.811458
H  -2.909708  -2.067957  -1.038419
H  -3.394668  -0.685722  -2.015945
H  -4.560420  -1.363411  0.747510
H  -5.036440  0.022789  -0.244397
H  -5.364432  -1.620777  -0.809678
C  0.107514  2.179647  -0.877632
C  0.926704  3.214284  -0.156290
C  0.459295  4.384177  0.282494
H  -0.930124  2.524180  -0.961689
H  0.498451  2.064739  -1.894530
H  1.975433  2.964084  -0.006459
H  1.100696  5.102668  0.784566
H  -0.581573  4.671377  0.148692

