%nprocshared=2
%mem=6000MB
%chk=P_ng_correct1ginp002.chk
# b3lyp/6-31g(d,p) Opt=(maxcycles=50) scrf=(solvent=chloroform)

P_ng_correct1ginp002

0 1
C  2.416911  -0.252933  0.576080
C  0.967211  -0.723753  0.765246
C  -0.039320  0.409065  0.417834
C  0.225230  0.813782  -1.040157
C  1.675678  1.107729  -1.374685
H  2.661910  0.450336  1.381428
H  0.763737  -1.519939  0.039033
H  -0.067100  -0.008124  -1.704923
H  -0.358588  1.689437  -1.328873
O  2.642413  0.492251  -0.662829
O  1.999114  1.821390  -2.301023
C  3.478918  -1.359779  0.581399
C  3.308916  -2.436215  -0.494611
C  0.774297  -1.308124  2.172773
O  -1.367910  -0.074189  0.594209
Si  -2.506861  -0.901313  -0.327368
C  -3.244426  0.212929  -1.659867
C  -1.801806  -2.465347  -1.118286
C  -3.831978  -1.362881  0.924857
H  -1.043316  -2.257785  -1.880345
H  -1.354957  -3.127889  -0.369442
H  -2.608765  -3.021177  -1.610531
H  -4.662223  -1.887008  0.438505
H  -3.430557  -2.019690  1.703618
H  -4.239809  -0.472762  1.414999
H  -3.621338  1.145671  -1.227001
H  -2.523587  0.474587  -2.440853
H  -4.087579  -0.292045  -2.145743
H  1.294781  -2.263896  2.275464
H  1.156138  -0.638360  2.950537
H  -0.286925  -1.478992  2.364096
H  3.493329  -1.814435  1.577854
H  4.449885  -0.868089  0.455252
H  4.161986  -3.120984  -0.482446
H  2.406440  -3.036256  -0.341495
H  3.254716  -1.987762  -1.490997
C  0.098391  1.636310  1.360067
C  -0.897190  2.730778  1.087702
C  -0.579626  3.987760  0.773127
H  1.113129  2.044126  1.292654
H  -0.039674  1.277010  2.387017
H  -1.944497  2.447569  1.172217
H  -1.342037  4.742123  0.601458
H  0.454799  4.311167  0.679960

