%nprocshared=2
%mem=6000MB
%chk=P_ng_2ginp011.chk
# b3lyp/6-31g(d,p) Opt=(maxcycles=50) scrf=(solvent=chloroform)

P_ng_2ginp011

0 1
C  2.466609  0.389133  0.070259
C  1.134387  0.325612  0.825774
C  -0.027469  -0.009618  -0.152890
C  0.302328  -1.404578  -0.715548
C  1.706941  -1.567333  -1.268155
H  2.455579  1.265243  -0.589562
H  1.168054  -0.531010  1.510789
H  0.196623  -2.136814  0.093892
H  -0.384955  -1.704914  -1.508616
O  2.685496  -0.759199  -0.812758
O  1.991106  -2.431663  -2.071566
C  3.723701  0.472692  0.944050
C  3.901699  -0.671680  1.946289
C  0.924226  1.582510  1.682778
O  -1.208606  -0.073557  0.640298
Si  -2.831104  -0.464920  0.413812
C  -3.431593  -0.891094  2.144639
C  -3.798854  1.012245  -0.250974
C  -3.091850  -1.935902  -0.740355
H  -3.692554  1.886968  0.399372
H  -3.482062  1.301668  -1.258007
H  -4.865911  0.764980  -0.300120
H  -2.547793  -2.825319  -0.407214
H  -4.158627  -2.189265  -0.758367
H  -2.793856  -1.721303  -1.772017
H  -4.504992  -1.111148  2.142073
H  -2.909670  -1.768975  2.539452
H  -3.262430  -0.060642  2.838005
H  -0.091862  1.588760  2.081374
H  1.615978  1.590805  2.529985
H  1.074496  2.501479  1.111605
H  3.713506  1.436946  1.463313
H  4.582046  0.500096  0.263615
H  4.866842  -0.583773  2.453844
H  3.124907  -0.669591  2.717381
H  3.877028  -1.642028  1.441520
C  -0.209882  0.973049  -1.341945
C  -0.509660  2.410814  -1.014411
C  0.066276  3.455707  -1.611992
H  -1.041118  0.568272  -1.937785
H  0.667931  0.925107  -1.997108
H  -1.278600  2.583572  -0.264751
H  -0.213313  4.476314  -1.367804
H  0.835082  3.329459  -2.371166

