%nprocshared=2
%mem=6000MB
%chk=P_ng_correct1ginp001.chk
# b3lyp/6-31g(d,p) Opt=(maxcycles=50) scrf=(solvent=chloroform)

P_ng_correct1ginp001

0 1
C  -2.314229  -0.552391  -0.368994
C  -0.841133  -0.935201  -0.590736
C  0.097984  0.289727  -0.398498
C  -0.130569  0.811133  1.027083
C  -1.581442  1.071482  1.381133
H  -2.675157  -0.000005  -1.246288
H  -0.558583  -1.648957  0.194945
H  0.223404  0.065954  1.749799
H  0.420056  1.734657  1.213559
O  -2.536968  0.351194  0.759416
O  -1.913943  1.860495  2.240751
C  -3.234096  -1.751562  -0.126073
C  -4.714114  -1.378086  0.000678
C  -0.660535  -1.630927  -1.948965
O  1.449513  -0.115147  -0.597035
Si  2.676704  -0.786802  0.338620
C  3.379208  0.479940  1.547302
C  2.110236  -2.325682  1.276453
C  3.984035  -1.258649  -0.928748
H  1.348375  -2.111923  2.033411
H  1.707039  -3.083946  0.596891
H  2.966026  -2.771445  1.797201
H  3.598043  -1.998117  -1.638082
H  4.314198  -0.385576  -1.501145
H  4.864371  -1.690438  -0.439742
H  3.676402  1.396296  1.026382
H  2.667159  0.756276  2.331137
H  4.270560  0.074680  2.040513
H  -1.108701  -2.627453  -1.946660
H  -1.120897  -1.062709  -2.763835
H  0.402736  -1.740967  -2.170936
H  -2.893830  -2.267278  0.780702
H  -3.105418  -2.453711  -0.956420
H  -5.323750  -2.272089  0.162543
H  -4.879111  -0.696462  0.838550
H  -5.076323  -0.887496  -0.909777
C  -0.171867  1.407478  -1.442436
C  0.739194  2.597793  -1.313171
C  0.330583  3.849826  -1.100507
H  -1.214187  1.737943  -1.372266
H  -0.038336  0.963146  -2.436014
H  1.802726  2.390631  -1.414586
H  1.034022  4.674390  -1.029305
H  -0.723032  4.098199  -0.993443

