%nprocshared=2
%mem=6000MB
%chk=P_ng_correct1ginp003.chk
# b3lyp/6-31g(d,p) Opt=(maxcycles=50) scrf=(solvent=chloroform)

P_ng_correct1ginp003

0 1
C  -2.401560  0.141879  -0.350119
C  -1.005449  0.323302  -0.963346
C  0.101423  0.039722  0.092271
C  -0.091369  -1.429883  0.502673
C  -1.494364  -1.778337  0.961789
H  -2.608665  0.982993  0.324197
H  -0.870255  -0.455399  -1.727172
H  0.123381  -2.068892  -0.361889
H  0.588149  -1.729736  1.304408
O  -2.526426  -1.053705  0.487336
O  -1.725936  -2.709556  1.704709
C  -3.527539  0.041606  -1.381978
C  -4.923801  -0.073971  -0.762820
C  -0.879998  1.681826  -1.669469
O  1.350682  0.226441  -0.564976
Si  2.920329  -0.352344  -0.365531
C  3.535022  -0.183506  1.411644
C  3.064384  -2.153096  -0.913664
C  3.934632  0.740458  -1.511651
H  2.559767  -2.844280  -0.231447
H  2.644140  -2.298563  -1.914605
H  4.120532  -2.444897  -0.953106
H  4.988886  0.442214  -1.502306
H  3.575814  0.667821  -2.543622
H  3.881207  1.792013  -1.211287
H  3.462791  0.848329  1.771034
H  2.988144  -0.824764  2.110977
H  4.590208  -0.477599  1.460315
H  -1.489359  1.706991  -2.576672
H  -1.188779  2.508318  -1.025193
H  0.158685  1.846537  -1.961162
H  -3.326223  -0.821927  -2.028440
H  -3.485187  0.930941  -2.018860
H  -5.687271  -0.126700  -1.544783
H  -5.008774  -0.969220  -0.142384
H  -5.149463  0.794822  -0.134231
C  0.049222  0.925627  1.368554
C  0.317053  2.395262  1.190265
C  -0.385976  3.369590  1.770469
H  0.814786  0.518828  2.043500
H  -0.908442  0.783753  1.882815
H  1.175899  2.649604  0.572060
H  -0.122704  4.415450  1.642342
H  -1.248505  3.157849  2.398678

