%nprocshared=2
%mem=6000MB
%chk=P_ng_2ginp004.chk
# b3lyp/6-31g(d,p) Opt=(maxcycles=50) scrf=(solvent=chloroform)

P_ng_2ginp004

0 1
C  2.473658  0.310613  0.101338
C  1.128531  0.296601  0.838034
C  -0.039990  0.118997  -0.172302
C  0.192908  -1.252929  -0.829196
C  1.581546  -1.461170  -1.405866
H  2.544608  1.236224  -0.482812
H  1.088916  -0.603470  1.464845
H  0.052906  -2.032459  -0.071151
H  -0.519018  -1.453695  -1.633938
O  2.612523  -0.772591  -0.876515
O  1.805127  -2.262715  -2.289238
C  3.720885  0.218467  0.988053
C  3.789213  -1.010903  1.898908
C  1.000989  1.507308  1.774177
O  -1.244405  0.121486  0.588412
Si  -2.793446  -0.513420  0.394002
C  -3.524341  -0.131961  -1.304307
C  -2.809833  -2.378570  0.682991
C  -3.790425  0.345949  1.737009
H  -3.844444  -2.739916  0.717417
H  -2.296427  -2.933193  -0.108682
H  -2.337970  -2.636384  1.637234
H  -4.826989  -0.009117  1.739724
H  -3.367943  0.151399  2.728279
H  -3.808219  1.430428  1.587063
H  -4.562834  -0.481993  -1.339980
H  -3.530765  0.943023  -1.512381
H  -2.986697  -0.631286  -2.117219
H  -0.010547  1.551070  2.181737
H  1.697951  1.419274  2.612295
H  1.202248  2.449369  1.258895
H  3.784384  1.136846  1.581433
H  4.587530  0.226365  0.317760
H  3.008293  -0.999797  2.665739
H  3.684974  -1.933753  1.320518
H  4.753438  -1.047271  2.414454
C  -0.130455  1.198580  -1.287139
C  -0.439619  2.604162  -0.848940
C  0.171109  3.695442  -1.314083
H  -0.932218  0.865346  -1.959806
H  0.784455  1.192169  -1.890755
H  -1.250321  2.709847  -0.130453
H  -0.121305  4.691290  -0.994188
H  0.983223  3.634612  -2.035380

