%nprocshared=2
%mem=6000MB
%chk=AT3_1ginp011.chk
# b3lyp/6-31g(d,p) Opt=(maxcycles=100,MaxStep=1) scrf=(solvent=chloroform)

AT3_1ginp011

0 1
C  -1.871031  3.044202  0.114014
C  -2.504329  1.733949  0.598045
C  -2.171477  0.515942  -0.291970
C  -2.846322  -0.805974  0.164127
C  -2.591012  -1.945960  -0.845109
O  -1.231173  -2.321978  -0.972385
N  -0.710047  0.305829  -0.505093
C  0.121961  0.232567  0.712659
C  4.306803  -0.234269  -0.327303
C  3.673602  0.994688  -0.524714
C  2.333792  1.101645  -0.180600
C  1.578284  0.056003  0.352964
C  2.262860  -1.149234  0.521688
C  3.604888  -1.318593  0.199037
H  5.353966  -0.346932  -0.587411
H  4.194640  1.851990  -0.934519
H  4.074335  -2.282077  0.359816
F  1.703688  2.290123  -0.379184
F  1.586997  -2.200592  1.034845
H  -0.777431  3.011930  0.131814
H  -2.179217  3.272813  -0.913049
H  -2.184063  3.881397  0.745449
H  -2.207052  1.533730  1.635754
H  -3.591004  1.860791  0.616193
H  -2.408485  -1.115845  1.123543
H  -3.019993  -1.647970  -1.820710
H  -3.141801  -2.837144  -0.520048
H  -0.758402  -1.463792  -1.054281
H  0.022641  1.123067  1.348457
H  -0.200074  -0.627672  1.300786
H  -2.562088  0.734760  -1.297136
C  -4.362628  -0.647060  0.362729
H  -4.843686  -0.253715  -0.541114
H  -4.819828  -1.617040  0.584124
H  -4.605715  0.023391  1.190195
H  -0.355527  1.060132  -1.087488

