%nprocshared=2
%mem=6000MB
%chk=AT3_1ginp001.chk
# b3lyp/6-31g(d,p) Opt=(maxcycles=100,MaxStep=1) scrf=(solvent=chloroform)

AT3_1ginp001

0 1
C  2.388743  2.602337  -0.036321
C  2.457719  1.515366  1.043350
C  2.069699  0.091307  0.577101
C  3.020255  -0.526975  -0.484182
C  2.665898  -2.003879  -0.763278
O  1.408831  -2.193270  -1.388075
N  0.674775  -0.006396  0.075506
C  -0.374714  0.245616  1.078191
C  -4.296758  -0.039746  -0.746128
C  -3.845512  -1.074727  0.073177
C  -2.584190  -0.965349  0.647962
C  -1.745229  0.133491  0.455535
C  -2.250364  1.133758  -0.377211
C  -3.498228  1.081411  -0.981776
H  -5.276693  -0.107247  -1.206623
H  -4.446888  -1.954950  0.268360
H  -3.823525  1.896885  -1.617070
F  -2.148860  -1.969050  1.442733
F  -1.457904  2.213246  -0.606671
H  1.373633  2.718903  -0.431767
H  2.683645  3.571250  0.378217
H  3.054258  2.389434  -0.879524
H  3.465464  1.481393  1.470208
H  1.803152  1.798900  1.876054
H  2.885446  0.015911  -1.431089
H  2.732967  -2.563799  0.188603
H  3.424618  -2.429786  -1.431480
H  0.809016  -1.592161  -0.892455
H  -0.274628  -0.501866  1.868591
H  -0.285401  1.235121  1.548080
H  2.114722  -0.561248  1.461897
C  4.497363  -0.429422  -0.072522
H  5.130641  -0.945470  -0.801381
H  4.844140  0.605165  -0.014118
H  4.670445  -0.895739  0.904924
H  0.553708  0.653337  -0.691317

