%nprocshared=2
%mem=6000MB
%chk=AT3_1ginp019.chk
# b3lyp/6-31g(d,p) Opt=(maxcycles=100,MaxStep=1) scrf=(solvent=chloroform)

AT3_1ginp019

0 1
C  -1.964583  2.708413  -0.946085
C  -1.416988  1.889803  0.228783
C  -1.209926  0.389640  -0.069234
C  -2.475306  -0.334861  -0.597095
C  -3.603300  -0.396129  0.436960
O  -4.778610  -0.876758  -0.221312
N  -0.723803  -0.302068  1.140448
C  0.604820  0.073996  1.638122
C  3.888442  -0.411827  -1.178849
C  3.528078  0.869365  -0.761647
C  2.476563  1.001397  0.139063
C  1.758162  -0.077340  0.655425
C  2.164297  -1.331980  0.195210
C  3.204421  -1.532264  -0.701337
H  4.705731  -0.539386  -1.880799
H  4.041564  1.754746  -1.118389
H  3.463340  -2.538666  -1.009339
F  2.132723  2.250926  0.542066
F  1.491386  -2.414895  0.663726
H  -1.365051  2.556217  -1.851204
H  -3.000661  2.451706  -1.187069
H  -1.939965  3.777347  -0.711656
H  -0.447733  2.313943  0.511135
H  -2.066706  2.002145  1.104829
H  -2.852174  0.264419  -1.434507
H  -3.782687  0.601417  0.862633
H  -3.316452  -1.057416  1.266390
H  -5.465346  -0.983119  0.449465
H  0.585012  1.103909  1.996338
H  0.806325  -0.558517  2.508845
H  -0.467891  0.334021  -0.889024
C  -2.162482  -1.731861  -1.159324
H  -3.059145  -2.163730  -1.609475
H  -1.382007  -1.681638  -1.925984
H  -1.826925  -2.430311  -0.383150
H  -0.703916  -1.300940  0.956231

