%nprocshared=2
%mem=6000MB
%chk=AT3_2ginp003.chk
# b3lyp/6-31g(d,p) Opt=(maxcycles=100,MaxStep=1) scrf=(solvent=chloroform)

AT3_2ginp003

0 1
C  -3.0453317668  -1.408100193  -0.5550375787
C  -2.5235575774  -1.0986250897  0.8552223938
C  -3.6269734927  -1.0815261206  1.9282314046
C  -3.1074855395  -1.2168424249  3.3908224233
C  -2.1701869592  -0.0709016623  3.8266560395
O  -2.7861557868  1.2101868414  3.8354202797
N  -4.3988942794  0.1784642675  1.7656807151
C  -5.7533776988  0.2067896356  2.3452820464
C  -8.4625752504  -2.8704477411  0.9056594695
C  -8.0677056875  -2.8762918339  2.2435353728
C  -7.1962978683  -1.8846497578  2.6810933312
C  -6.6987005291  -0.8751348311  1.8559570821
C  -7.1227415553  -0.930222845  0.5264682426
C  -7.9887411339  -1.8926845958  0.0276322265
H  -9.1413851751  -3.6347265525  0.542315569
H  -8.4175500083  -3.6277775085  2.941779953
H  -8.2764251843  -1.8694223655  -1.0170138662
F  -6.8072142568  -1.8958082442  3.9789803003
F  -6.6436688785  0.019897228  -0.3188948111
H  -2.2361841221  -1.3529186838  -1.2897139402
H  -3.4701467211  -2.4168035191  -0.6006253259
H  -3.8269944256  -0.7123611079  -0.8817800133
H  -1.7735028005  -1.8504867532  1.1198686948
H  -2.0063746897  -0.1311838894  0.8582263908
H  -3.9904741785  -1.1695099297  4.041347349
H  -1.2708155145  -0.0733405382  3.1863320397
H  -1.8232402375  -0.2662241178  4.8493362552
H  -3.3189567752  1.2350663648  3.0058345279
H  -5.6804189558  0.1532069701  3.4316669955
H  -6.1788251386  1.1863131259  2.1050408515
H  -4.2775980371  -1.9548125737  1.7441030165
C  -2.4419397195  -2.5790114311  3.6367797801
H  -1.4814406441  -2.6709722882  3.1182635724
H  -2.2504151622  -2.7236031533  4.7047328801
H  -3.0825826168  -3.4010331975  3.2999942724
H  -4.4810836333  0.3918025156  0.7756790602

