%nprocshared=2
%mem=6000MB
%chk=AT3_1ginp007.chk
# b3lyp/6-31g(d,p) Opt=(maxcycles=100,MaxStep=1) scrf=(solvent=chloroform)

AT3_1ginp007

0 1
C  1.587047  3.067182  0.054735
C  2.452107  1.912841  -0.465704
C  2.119397  0.523082  0.114218
C  3.133337  -0.561100  -0.350329
C  2.663684  -1.988615  -0.002862
O  1.558322  -2.425755  -0.772751
N  0.718817  0.121932  -0.211321
C  -0.247627  0.291688  0.892318
C  -4.285222  -0.414534  -0.516147
C  -3.477628  -1.496145  -0.159979
C  -2.189150  -1.237958  0.289651
C  -1.657345  0.048149  0.413409
C  -2.508325  1.087670  0.033259
C  -3.806299  0.892724  -0.422767
H  -5.294909  -0.592313  -0.870990
H  -3.826719  -2.519944  -0.226532
H  -4.412979  1.748214  -0.695810
F  -1.400296  -2.280050  0.633961
F  -2.038947  2.357451  0.117083
H  0.525616  2.930104  -0.172996
H  1.684056  3.176958  1.140756
H  1.898059  4.012596  -0.400986
H  2.366625  1.852470  -1.560525
H  3.502164  2.143895  -0.260463
H  3.203731  -0.514910  -1.447071
H  2.450834  -2.041326  1.081631
H  3.485503  -2.689764  -0.192805
H  0.923533  -1.681245  -0.684528
H  -0.001137  -0.440275  1.666970
H  -0.195463  1.286517  1.351409
H  2.184377  0.576255  1.210943
C  4.530265  -0.327129  0.247806
H  4.501996  -0.381554  1.343153
H  5.230280  -1.092583  -0.102584
H  4.948263  0.644936  -0.024867
H  0.395625  0.650758  -1.018501

